/*---------------------------------------------------------------------------*\
  =========                 |
  \\      /  F ield         | OpenFOAM: The Open Source CFD Toolbox
   \\    /   O peration     | Website:  https://openfoam.org
    \\  /    A nd           | Version:  6
     \\/     M anipulation  |
\*---------------------------------------------------------------------------*/
Build  : 6-d3fd147e6c65
Exec   : decomposePar
Date   : Apr 06 2020
Time   : 13:30:51
Host   : "DESKTOP-QC72NLQ"
PID    : 14754
I/O    : uncollated
Case   : /mnt/c/Users/fiedl/OneDrive/Documents/OF_Cases/flowAroundSuzanne/suzanne_dash/pimple_case
nProcs : 1
sigFpe : Enabling floating point exception trapping (FOAM_SIGFPE).
fileModificationChecking : Monitoring run-time modified files using timeStampMaster (fileModificationSkew 10)
allowSystemOperations : Allowing user-supplied system call operations

// * * * * * * * * * * * * * * * * * * * * * * * * * * * * * * * * * * * * * //
Create time



Decomposing mesh region0

Create mesh

Calculating distribution of cells
Selecting decompositionMethod simple

Finished decomposition in 0.37 s

Calculating original mesh data

Distributing cells to processors

Distributing faces to processors

Distributing points to processors

Constructing processor meshes
Reading hexRef8 data : cellLevel
Reading hexRef8 data : pointLevel
Reading hexRef8 data : level0Edge

Processor 0
    Number of cells = 72054
    Number of faces shared with processor 1 = 2944
    Number of faces shared with processor 2 = 1965
    Number of processor patches = 2
    Number of processor faces = 4909
    Number of boundary faces = 7594

Processor 1
    Number of cells = 71963
    Number of faces shared with processor 0 = 2944
    Number of faces shared with processor 3 = 1990
    Number of processor patches = 2
    Number of processor faces = 4934
    Number of boundary faces = 7554

Processor 2
    Number of cells = 71963
    Number of faces shared with processor 0 = 1965
    Number of faces shared with processor 3 = 2203
    Number of processor patches = 2
    Number of processor faces = 4168
    Number of boundary faces = 7918

Processor 3
    Number of cells = 72054
    Number of faces shared with processor 1 = 1990
    Number of faces shared with processor 2 = 2203
    Number of processor patches = 2
    Number of processor faces = 4193
    Number of boundary faces = 7942

Number of processor faces = 9102
Max number of cells = 72054 (0.063187% above average 72008.5)
Max number of processor patches = 2 (0% above average 2)
Max number of faces between processors = 4934 (8.41573% above average 4551)

Time = 0

Processor 0: field transfer
Processor 1: field transfer
Processor 2: field transfer
Processor 3: field transfer

End

--------------------------------------------------------------------------
WARNING: Linux kernel CMA support was requested via the
btl_vader_single_copy_mechanism MCA variable, but CMA support is
not available due to restrictive ptrace settings.

The vader shared memory BTL will fall back on another single-copy
mechanism if one is available. This may result in lower performance.

  Local host: DESKTOP-QC72NLQ
--------------------------------------------------------------------------
/*---------------------------------------------------------------------------*\
  =========                 |
  \\      /  F ield         | OpenFOAM: The Open Source CFD Toolbox
   \\    /   O peration     | Website:  https://openfoam.org
    \\  /    A nd           | Version:  6
     \\/     M anipulation  |
\*---------------------------------------------------------------------------*/
Build  : 6-d3fd147e6c65
Exec   : renumberMesh -overwrite -parallel
Date   : Apr 06 2020
Time   : 13:30:58
Host   : "DESKTOP-QC72NLQ"
PID    : 14762
I/O    : uncollated
Case   : /mnt/c/Users/fiedl/OneDrive/Documents/OF_Cases/flowAroundSuzanne/suzanne_dash/pimple_case
nProcs : 4
Slaves : 
3
(
"DESKTOP-QC72NLQ.14763"
"DESKTOP-QC72NLQ.14764"
"DESKTOP-QC72NLQ.14765"
)

Pstream initialized with:
    floatTransfer      : 0
    nProcsSimpleSum    : 0
    commsType          : nonBlocking
    polling iterations : 0
sigFpe : Enabling floating point exception trapping (FOAM_SIGFPE).
fileModificationChecking : Monitoring run-time modified files using timeStampMaster (fileModificationSkew 10)
allowSystemOperations : Allowing user-supplied system call operations

// * * * * * * * * * * * * * * * * * * * * * * * * * * * * * * * * * * * * * //
Create time

Create mesh for time = 0

Mesh size: 288034
Before renumbering :
    band           : 68665
    profile        : 4.085e+09

Using default renumberMethod.

Selecting renumberMethod CuthillMcKee

Reading geometric fields

Reading volScalarField p
Reading volVectorField U

Renumbering processor cell decomposition map cellProcAddressing
Renumbering processor face decomposition map faceProcAddressing
Renumbering processor point decomposition map pointProcAddressing
After renumbering :
    band           : 3853
    profile        : 5.4669e+08

Writing mesh to "constant"

End

Finalising parallel run
/*---------------------------------------------------------------------------*\
  =========                 |
  \\      /  F ield         | OpenFOAM: The Open Source CFD Toolbox
   \\    /   O peration     | Website:  https://openfoam.org
    \\  /    A nd           | Version:  6
     \\/     M anipulation  |
\*---------------------------------------------------------------------------*/
Build  : 6-d3fd147e6c65
Exec   : renumberMesh
Date   : Apr 06 2020
Time   : 13:31:03
Host   : "DESKTOP-QC72NLQ"
PID    : 14774
I/O    : uncollated
Case   : /mnt/c/Users/fiedl/OneDrive/Documents/OF_Cases/flowAroundSuzanne/suzanne_dash/pimple_case
nProcs : 1
sigFpe : Enabling floating point exception trapping (FOAM_SIGFPE).
fileModificationChecking : Monitoring run-time modified files using timeStampMaster (fileModificationSkew 10)
allowSystemOperations : Allowing user-supplied system call operations

// * * * * * * * * * * * * * * * * * * * * * * * * * * * * * * * * * * * * * //
Create time

Create mesh for time = 0

Mesh size: 288034
Before renumbering :
    band           : 272194
    profile        : 1.63434e+10

Using default renumberMethod.

Selecting renumberMethod CuthillMcKee

Reading geometric fields

Reading volScalarField p
Reading volVectorField U

After renumbering :
    band           : 15583
    profile        : 2.69998e+09

Writing mesh to "1e-05"

End

--------------------------------------------------------------------------
WARNING: Linux kernel CMA support was requested via the
btl_vader_single_copy_mechanism MCA variable, but CMA support is
not available due to restrictive ptrace settings.

The vader shared memory BTL will fall back on another single-copy
mechanism if one is available. This may result in lower performance.

  Local host: DESKTOP-QC72NLQ
--------------------------------------------------------------------------
/*---------------------------------------------------------------------------*\
  =========                 |
  \\      /  F ield         | OpenFOAM: The Open Source CFD Toolbox
   \\    /   O peration     | Website:  https://openfoam.org
    \\  /    A nd           | Version:  6
     \\/     M anipulation  |
\*---------------------------------------------------------------------------*/
Build  : 6-d3fd147e6c65
Exec   : pimpleFoam -parallel
Date   : Apr 06 2020
Time   : 13:31:09
Host   : "DESKTOP-QC72NLQ"
PID    : 14784
I/O    : uncollated
Case   : /mnt/c/Users/fiedl/OneDrive/Documents/OF_Cases/flowAroundSuzanne/suzanne_dash/pimple_case
nProcs : 4
Slaves : 
3
(
"DESKTOP-QC72NLQ.14785"
"DESKTOP-QC72NLQ.14786"
"DESKTOP-QC72NLQ.14787"
)

Pstream initialized with:
    floatTransfer      : 0
    nProcsSimpleSum    : 0
    commsType          : nonBlocking
    polling iterations : 0
sigFpe : Enabling floating point exception trapping (FOAM_SIGFPE).
fileModificationChecking : Monitoring run-time modified files using timeStampMaster (fileModificationSkew 10)
allowSystemOperations : Allowing user-supplied system call operations

// * * * * * * * * * * * * * * * * * * * * * * * * * * * * * * * * * * * * * //
Create time

Create mesh for time = 0


PIMPLE: No convergence criteria found


PIMPLE: Corrector convergence criteria found
        U: tolerance 1e-05, relTol 0
        p: tolerance 0.001, relTol 0
        Calclations will do 50 corrections if the convergence criteria are not met

Reading field p

Reading field U

Reading/calculating face flux field phi

Selecting incompressible transport model Newtonian
Selecting turbulence model type laminar
Selecting laminar stress model Stokes
No MRF models present

No finite volume options present
Courant Number mean: 1.56979e-08 max: 9.41687e-07
forces forces:
    Not including porosity effects
forceCoeffs forces:
    Not including porosity effects

Starting time loop

Courant Number mean: 1.56979e-08 max: 9.41687e-07
deltaT = 1.19904e-05
Time = 1.19904e-05

PIMPLE: Iteration 1
smoothSolver:  Solving for Ux, Initial residual = 0.265518, Final residual = 2.06244e-10, No Iterations 1
smoothSolver:  Solving for Uy, Initial residual = 1, Final residual = 1.43885e-09, No Iterations 1
smoothSolver:  Solving for Uz, Initial residual = 0.154081, Final residual = 2.88435e-10, No Iterations 1
GAMG:  Solving for p, Initial residual = 1, Final residual = 0.0147963, No Iterations 8
time step continuity errors : sum local = 5.57007e-10, global = -1.35375e-10, cumulative = -1.35375e-10
GAMG:  Solving for p, Initial residual = 0.00418306, Final residual = 7.16084e-07, No Iterations 15
time step continuity errors : sum local = 2.69216e-12, global = -6.93737e-13, cumulative = -1.36069e-10
PIMPLE: Iteration 2
smoothSolver:  Solving for Ux, Initial residual = 0.0907016, Final residual = 1.71082e-08, No Iterations 1
smoothSolver:  Solving for Uy, Initial residual = 0.677945, Final residual = 2.3462e-08, No Iterations 1
smoothSolver:  Solving for Uz, Initial residual = 0.0124249, Final residual = 2.85089e-09, No Iterations 1
GAMG:  Solving for p, Initial residual = 0.00263744, Final residual = 4.65642e-05, No Iterations 7
time step continuity errors : sum local = 1.76358e-10, global = -4.32623e-11, cumulative = -1.79331e-10
GAMG:  Solving for p, Initial residual = 0.000856473, Final residual = 7.38907e-07, No Iterations 11
time step continuity errors : sum local = 3.23784e-12, global = -7.72688e-13, cumulative = -1.80104e-10
PIMPLE: Iteration 3
smoothSolver:  Solving for Ux, Initial residual = 0.0295579, Final residual = 4.5502e-09, No Iterations 1
smoothSolver:  Solving for Uy, Initial residual = 0.358676, Final residual = 1.24081e-08, No Iterations 1
smoothSolver:  Solving for Uz, Initial residual = 0.0041188, Final residual = 7.76608e-10, No Iterations 1
GAMG:  Solving for p, Initial residual = 0.000491429, Final residual = 5.31692e-06, No Iterations 4
time step continuity errors : sum local = 2.33407e-11, global = 6.31084e-12, cumulative = -1.73793e-10
GAMG:  Solving for p, Initial residual = 0.000150265, Final residual = 6.05038e-07, No Iterations 5
time step continuity errors : sum local = 2.65238e-12, global = 9.84029e-13, cumulative = -1.72809e-10
PIMPLE: Iteration 4
smoothSolver:  Solving for Ux, Initial residual = 0.00742974, Final residual = 9.45139e-10, No Iterations 1
smoothSolver:  Solving for Uy, Initial residual = 0.0940008, Final residual = 3.24262e-09, No Iterations 1
smoothSolver:  Solving for Uz, Initial residual = 0.00103069, Final residual = 1.59786e-10, No Iterations 1
GAMG:  Solving for p, Initial residual = 0.000151117, Final residual = 2.64041e-06, No Iterations 7
time step continuity errors : sum local = 1.1572e-11, global = 2.82765e-12, cumulative = -1.69981e-10
GAMG:  Solving for p, Initial residual = 4.15158e-05, Final residual = 5.92734e-07, No Iterations 7
time step continuity errors : sum local = 2.57509e-12, global = 8.45855e-13, cumulative = -1.69135e-10
PIMPLE: Iteration 5
smoothSolver:  Solving for Ux, Initial residual = 0.00109247, Final residual = 1.07046e-10, No Iterations 1
smoothSolver:  Solving for Uy, Initial residual = 0.00537611, Final residual = 1.79553e-10, No Iterations 1
smoothSolver:  Solving for Uz, Initial residual = 0.000149985, Final residual = 1.66951e-11, No Iterations 1
GAMG:  Solving for p, Initial residual = 5.34357e-05, Final residual = 9.24855e-07, No Iterations 7
time step continuity errors : sum local = 4.0175e-12, global = 9.82086e-13, cumulative = -1.68153e-10
GAMG:  Solving for p, Initial residual = 1.72964e-05, Final residual = 7.99018e-07, No Iterations 5
time step continuity errors : sum local = 3.46015e-12, global = 1.35279e-12, cumulative = -1.668e-10
PIMPLE: Iteration 6
smoothSolver:  Solving for Ux, Initial residual = 0.00032094, Final residual = 5.46589e-11, No Iterations 1
smoothSolver:  Solving for Uy, Initial residual = 0.00428884, Final residual = 1.50359e-10, No Iterations 1
smoothSolver:  Solving for Uz, Initial residual = 4.45582e-05, Final residual = 8.35457e-12, No Iterations 1
GAMG:  Solving for p, Initial residual = 1.40516e-05, Final residual = 7.1944e-07, No Iterations 5
time step continuity errors : sum local = 3.11554e-12, global = 8.04008e-13, cumulative = -1.65996e-10
GAMG:  Solving for p, Initial residual = 4.96474e-06, Final residual = 6.42802e-07, No Iterations 3
time step continuity errors : sum local = 2.782e-12, global = 1.19918e-12, cumulative = -1.64797e-10
PIMPLE: Iteration 7
smoothSolver:  Solving for Ux, Initial residual = 0.00018063, Final residual = 2.55457e-11, No Iterations 1
smoothSolver:  Solving for Uy, Initial residual = 0.0018643, Final residual = 6.50517e-11, No Iterations 1
smoothSolver:  Solving for Uz, Initial residual = 2.76414e-05, Final residual = 4.42666e-12, No Iterations 1
GAMG:  Solving for p, Initial residual = 3.18712e-06, Final residual = 8.74405e-07, No Iterations 1
time step continuity errors : sum local = 3.78437e-12, global = 1.12544e-12, cumulative = -1.63672e-10
GAMG:  Solving for p, Initial residual = 1.4266e-06, Final residual = 4.32426e-07, No Iterations 1
time step continuity errors : sum local = 1.87147e-12, global = 7.59227e-13, cumulative = -1.62912e-10
PIMPLE: Iteration 8
smoothSolver:  Solving for Ux, Initial residual = 0.000109674, Final residual = 1.17409e-11, No Iterations 1
smoothSolver:  Solving for Uy, Initial residual = 0.000429721, Final residual = 1.46831e-11, No Iterations 1
smoothSolver:  Solving for Uz, Initial residual = 1.47791e-05, Final residual = 2.08577e-12, No Iterations 1
GAMG:  Solving for p, Initial residual = 9.57169e-07, Final residual = 9.57169e-07, No Iterations 0
time step continuity errors : sum local = 4.14241e-12, global = -3.38916e-13, cumulative = -1.63251e-10
GAMG:  Solving for p, Initial residual = 9.57169e-07, Final residual = 9.57169e-07, No Iterations 0
time step continuity errors : sum local = 4.14241e-12, global = -3.38916e-13, cumulative = -1.6359e-10
PIMPLE: Iteration 9
smoothSolver:  Solving for Ux, Initial residual = 2.19343e-05, Final residual = 2.34812e-12, No Iterations 1
smoothSolver:  Solving for Uy, Initial residual = 8.59206e-05, Final residual = 2.93665e-12, No Iterations 1
smoothSolver:  Solving for Uz, Initial residual = 2.9558e-06, Final residual = 2.9558e-06, No Iterations 0
GAMG:  Solving for p, Initial residual = 1.02025e-06, Final residual = 3.62928e-07, No Iterations 1
time step continuity errors : sum local = 1.57067e-12, global = -3.39342e-13, cumulative = -1.6393e-10
GAMG:  Solving for p, Initial residual = 4.80862e-07, Final residual = 4.80862e-07, No Iterations 0
time step continuity errors : sum local = 2.08107e-12, global = -4.31285e-13, cumulative = -1.64361e-10
PIMPLE: Iteration 10
smoothSolver:  Solving for Ux, Initial residual = 5.97205e-05, Final residual = 3.84039e-12, No Iterations 1
smoothSolver:  Solving for Uy, Initial residual = 8.77942e-06, Final residual = 8.77942e-06, No Iterations 0
smoothSolver:  Solving for Uz, Initial residual = 7.72602e-06, Final residual = 7.72602e-06, No Iterations 0
GAMG:  Solving for p, Initial residual = 5.9829e-07, Final residual = 5.9829e-07, No Iterations 0
time step continuity errors : sum local = 2.58927e-12, global = -5.27649e-13, cumulative = -1.64889e-10
GAMG:  Solving for p, Initial residual = 5.98289e-07, Final residual = 5.98289e-07, No Iterations 0
time step continuity errors : sum local = 2.58927e-12, global = -5.27649e-13, cumulative = -1.65416e-10
PIMPLE: Iteration 11
smoothSolver:  Solving for Ux, Initial residual = 1.19437e-05, Final residual = 7.6809e-13, No Iterations 1
smoothSolver:  Solving for Uy, Initial residual = 1.75593e-06, Final residual = 1.75593e-06, No Iterations 0
smoothSolver:  Solving for Uz, Initial residual = 1.54511e-06, Final residual = 1.54511e-06, No Iterations 0
GAMG:  Solving for p, Initial residual = 5.93505e-07, Final residual = 5.93505e-07, No Iterations 0
time step continuity errors : sum local = 2.56856e-12, global = -5.34049e-13, cumulative = -1.6595e-10
GAMG:  Solving for p, Initial residual = 5.93505e-07, Final residual = 5.93505e-07, No Iterations 0
time step continuity errors : sum local = 2.56856e-12, global = -5.34049e-13, cumulative = -1.66484e-10
PIMPLE: Iteration 12
smoothSolver:  Solving for Ux, Initial residual = 2.38874e-06, Final residual = 2.38874e-06, No Iterations 0
smoothSolver:  Solving for Uy, Initial residual = 3.51188e-07, Final residual = 3.51188e-07, No Iterations 0
smoothSolver:  Solving for Uz, Initial residual = 3.0902e-07, Final residual = 3.0902e-07, No Iterations 0
GAMG:  Solving for p, Initial residual = 5.92563e-07, Final residual = 5.92563e-07, No Iterations 0
time step continuity errors : sum local = 2.56448e-12, global = -5.3533e-13, cumulative = -1.6702e-10
GAMG:  Solving for p, Initial residual = 5.92563e-07, Final residual = 5.92563e-07, No Iterations 0
time step continuity errors : sum local = 2.56448e-12, global = -5.3533e-13, cumulative = -1.67555e-10
PIMPLE: Converged 
        Doing final iteration
PIMPLE: Iteration 13
smoothSolver:  Solving for Ux, Initial residual = 5.97188e-07, Final residual = 5.97188e-07, No Iterations 0
smoothSolver:  Solving for Uy, Initial residual = 8.77973e-08, Final residual = 8.77973e-08, No Iterations 0
smoothSolver:  Solving for Uz, Initial residual = 7.72551e-08, Final residual = 7.72551e-08, No Iterations 0
GAMG:  Solving for p, Initial residual = 0.000924928, Final residual = 1.04952e-05, No Iterations 3
time step continuity errors : sum local = 5.67298e-11, global = -6.63747e-13, cumulative = -1.68219e-10
GAMG:  Solving for p, Initial residual = 1.35736e-05, Final residual = 7.79157e-07, No Iterations 3
time step continuity errors : sum local = 4.20823e-12, global = -5.18426e-13, cumulative = -1.68737e-10
PIMPLE: Converged in 13 iterations
ExecutionTime = 11.68 s  ClockTime = 35 s

Courant Number mean: 2.35629e-06 max: 0.000625238
deltaT = 1.43712e-05
Time = 2.63616e-05

PIMPLE: Iteration 1
smoothSolver:  Solving for Ux, Initial residual = 0.32345, Final residual = 6.52239e-08, No Iterations 1
smoothSolver:  Solving for Uy, Initial residual = 0.925425, Final residual = 3.84108e-08, No Iterations 1
smoothSolver:  Solving for Uz, Initial residual = 0.0657045, Final residual = 1.61793e-08, No Iterations 1
GAMG:  Solving for p, Initial residual = 0.00710526, Final residual = 0.000103832, No Iterations 8
time step continuity errors : sum local = 6.40461e-10, global = 1.55652e-10, cumulative = -1.30851e-11
GAMG:  Solving for p, Initial residual = 0.0096015, Final residual = 9.71822e-07, No Iterations 16
time step continuity errors : sum local = 1.84156e-12, global = 5.02056e-13, cumulative = -1.2583e-11
PIMPLE: Iteration 2
smoothSolver:  Solving for Ux, Initial residual = 0.0249518, Final residual = 4.33803e-09, No Iterations 1
smoothSolver:  Solving for Uy, Initial residual = 0.332415, Final residual = 1.37995e-08, No Iterations 1
smoothSolver:  Solving for Uz, Initial residual = 0.00390093, Final residual = 8.26525e-10, No Iterations 1
GAMG:  Solving for p, Initial residual = 0.00942932, Final residual = 0.000124113, No Iterations 8
time step continuity errors : sum local = 2.30553e-10, global = 5.60342e-11, cumulative = 4.34512e-11
GAMG:  Solving for p, Initial residual = 0.0222557, Final residual = 7.64999e-07, No Iterations 18
time step continuity errors : sum local = 2.43522e-13, global = 6.58765e-14, cumulative = 4.35171e-11
PIMPLE: Iteration 3
smoothSolver:  Solving for Ux, Initial residual = 0.0200442, Final residual = 3.42127e-09, No Iterations 1
smoothSolver:  Solving for Uy, Initial residual = 0.560739, Final residual = 2.33472e-08, No Iterations 1
smoothSolver:  Solving for Uz, Initial residual = 0.00293505, Final residual = 6.13033e-10, No Iterations 1
GAMG:  Solving for p, Initial residual = 0.0141976, Final residual = 0.00014532, No Iterations 8
time step continuity errors : sum local = 4.44719e-11, global = 1.08127e-11, cumulative = 5.43298e-11
GAMG:  Solving for p, Initial residual = 0.138857, Final residual = 8.94569e-07, No Iterations 21
time step continuity errors : sum local = 1.07091e-14, global = 2.69119e-15, cumulative = 5.43325e-11
PIMPLE: Iteration 4
smoothSolver:  Solving for Ux, Initial residual = 0.01218, Final residual = 1.80977e-09, No Iterations 1
smoothSolver:  Solving for Uy, Initial residual = 0.211273, Final residual = 8.79021e-09, No Iterations 1
smoothSolver:  Solving for Uz, Initial residual = 0.00171973, Final residual = 3.11258e-10, No Iterations 1
GAMG:  Solving for p, Initial residual = 0.0722039, Final residual = 0.00125351, No Iterations 5
time step continuity errors : sum local = 1.80459e-11, global = 4.70984e-12, cumulative = 5.90423e-11
GAMG:  Solving for p, Initial residual = 0.0122233, Final residual = 6.54523e-07, No Iterations 14
time step continuity errors : sum local = 1.82719e-14, global = 4.9635e-15, cumulative = 5.90473e-11
PIMPLE: Iteration 5
smoothSolver:  Solving for Ux, Initial residual = 0.00361494, Final residual = 4.73281e-10, No Iterations 1
smoothSolver:  Solving for Uy, Initial residual = 0.0421466, Final residual = 1.75048e-09, No Iterations 1
smoothSolver:  Solving for Uz, Initial residual = 0.000503308, Final residual = 7.88272e-11, No Iterations 1
GAMG:  Solving for p, Initial residual = 0.00868019, Final residual = 0.000129087, No Iterations 7
time step continuity errors : sum local = 3.72614e-12, global = -9.09745e-13, cumulative = 5.81375e-11
GAMG:  Solving for p, Initial residual = 0.00395116, Final residual = 8.59251e-07, No Iterations 14
time step continuity errors : sum local = 1.41722e-14, global = -3.87249e-15, cumulative = 5.81336e-11
PIMPLE: Iteration 6
smoothSolver:  Solving for Ux, Initial residual = 0.000604687, Final residual = 7.36644e-11, No Iterations 1
smoothSolver:  Solving for Uy, Initial residual = 0.00399583, Final residual = 1.64147e-10, No Iterations 1
smoothSolver:  Solving for Uz, Initial residual = 8.34785e-05, Final residual = 1.11665e-11, No Iterations 1
GAMG:  Solving for p, Initial residual = 0.00600945, Final residual = 9.84702e-05, No Iterations 7
time step continuity errors : sum local = 1.60668e-12, global = -3.92866e-13, cumulative = 5.77408e-11
GAMG:  Solving for p, Initial residual = 0.00239449, Final residual = 9.29226e-07, No Iterations 13
time step continuity errors : sum local = 1.02147e-14, global = -2.62981e-15, cumulative = 5.77381e-11
PIMPLE: Iteration 7
smoothSolver:  Solving for Ux, Initial residual = 0.000100737, Final residual = 2.15436e-11, No Iterations 1
smoothSolver:  Solving for Uy, Initial residual = 0.00100192, Final residual = 4.20553e-11, No Iterations 1
smoothSolver:  Solving for Uz, Initial residual = 1.3961e-05, Final residual = 3.13509e-12, No Iterations 1
GAMG:  Solving for p, Initial residual = 0.00242688, Final residual = 3.26211e-05, No Iterations 7
time step continuity errors : sum local = 3.55923e-13, global = -8.71034e-14, cumulative = 5.7651e-11
GAMG:  Solving for p, Initial residual = 0.000774151, Final residual = 6.63606e-07, No Iterations 11
time step continuity errors : sum local = 6.45988e-15, global = -1.5347e-15, cumulative = 5.76495e-11
PIMPLE: Iteration 8
smoothSolver:  Solving for Ux, Initial residual = 6.55134e-05, Final residual = 9.07754e-12, No Iterations 1
smoothSolver:  Solving for Uy, Initial residual = 0.000594689, Final residual = 2.49725e-11, No Iterations 1
smoothSolver:  Solving for Uz, Initial residual = 9.18003e-06, Final residual = 9.18003e-06, No Iterations 0
GAMG:  Solving for p, Initial residual = 0.00058781, Final residual = 6.65085e-06, No Iterations 6
time step continuity errors : sum local = 6.46199e-14, global = -1.64543e-14, cumulative = 5.76331e-11
GAMG:  Solving for p, Initial residual = 0.000175468, Final residual = 7.60764e-07, No Iterations 7
time step continuity errors : sum local = 7.31341e-15, global = -2.36341e-15, cumulative = 5.76307e-11
PIMPLE: Iteration 9
smoothSolver:  Solving for Ux, Initial residual = 2.16994e-05, Final residual = 2.46842e-12, No Iterations 1
smoothSolver:  Solving for Uy, Initial residual = 0.000154872, Final residual = 6.47965e-12, No Iterations 1
smoothSolver:  Solving for Uz, Initial residual = 3.03657e-06, Final residual = 3.03657e-06, No Iterations 0
GAMG:  Solving for p, Initial residual = 0.000135169, Final residual = 2.04495e-06, No Iterations 6
time step continuity errors : sum local = 1.96526e-14, global = 5.02161e-15, cumulative = 5.76357e-11
GAMG:  Solving for p, Initial residual = 4.34183e-05, Final residual = 8.96813e-07, No Iterations 5
time step continuity errors : sum local = 8.64751e-15, global = 3.38184e-15, cumulative = 5.76391e-11
PIMPLE: Iteration 10
smoothSolver:  Solving for Ux, Initial residual = 4.75649e-06, Final residual = 4.75649e-06, No Iterations 0
smoothSolver:  Solving for Uy, Initial residual = 2.02701e-05, Final residual = 8.38525e-13, No Iterations 1
smoothSolver:  Solving for Uz, Initial residual = 6.57623e-07, Final residual = 6.57623e-07, No Iterations 0
GAMG:  Solving for p, Initial residual = 4.83483e-05, Final residual = 5.69472e-07, No Iterations 7
time step continuity errors : sum local = 5.49136e-15, global = 1.3429e-15, cumulative = 5.76404e-11
GAMG:  Solving for p, Initial residual = 1.6308e-05, Final residual = 9.78893e-07, No Iterations 4
time step continuity errors : sum local = 9.45752e-15, global = 3.93965e-15, cumulative = 5.76444e-11
PIMPLE: Iteration 11
smoothSolver:  Solving for Ux, Initial residual = 7.44942e-07, Final residual = 7.44942e-07, No Iterations 0
smoothSolver:  Solving for Uy, Initial residual = 2.09758e-06, Final residual = 2.09758e-06, No Iterations 0
smoothSolver:  Solving for Uz, Initial residual = 1.02068e-07, Final residual = 1.02068e-07, No Iterations 0
GAMG:  Solving for p, Initial residual = 1.4934e-05, Final residual = 6.03625e-07, No Iterations 5
time step continuity errors : sum local = 5.8317e-15, global = 1.49863e-15, cumulative = 5.76459e-11
GAMG:  Solving for p, Initial residual = 5.22489e-06, Final residual = 5.51445e-07, No Iterations 3
time step continuity errors : sum local = 5.3303e-15, global = 2.24565e-15, cumulative = 5.76481e-11
PIMPLE: Converged 
        Doing final iteration
PIMPLE: Iteration 12
smoothSolver:  Solving for Ux, Initial residual = 4.13944e-07, Final residual = 4.13944e-07, No Iterations 0
smoothSolver:  Solving for Uy, Initial residual = 2.46311e-06, Final residual = 1.30191e-13, No Iterations 1
smoothSolver:  Solving for Uz, Initial residual = 5.76302e-08, Final residual = 5.76302e-08, No Iterations 0
GAMG:  Solving for p, Initial residual = 0.980623, Final residual = 0.0110899, No Iterations 3
time step continuity errors : sum local = 6.777e-11, global = -3.02861e-13, cumulative = 5.73453e-11
GAMG:  Solving for p, Initial residual = 0.685927, Final residual = 9.94876e-07, No Iterations 19
time step continuity errors : sum local = 1.27079e-16, global = -3.26987e-17, cumulative = 5.73452e-11
PIMPLE: Converged in 12 iterations
ExecutionTime = 25.78 s  ClockTime = 62 s

Courant Number mean: 2.82418e-06 max: 0.000748083
deltaT = 1.72256e-05
Time = 4.35873e-05

PIMPLE: Iteration 1
smoothSolver:  Solving for Ux, Initial residual = 0.00184989, Final residual = 2.35591e-10, No Iterations 1
smoothSolver:  Solving for Uy, Initial residual = 0.000179805, Final residual = 6.76214e-12, No Iterations 1
smoothSolver:  Solving for Uz, Initial residual = 0.000235382, Final residual = 3.09038e-11, No Iterations 1
GAMG:  Solving for p, Initial residual = 0.970094, Final residual = 0.0121775, No Iterations 3
time step continuity errors : sum local = 7.6321e-11, global = 9.81327e-13, cumulative = 5.83266e-11
GAMG:  Solving for p, Initial residual = 0.177057, Final residual = 9.26104e-07, No Iterations 13
time step continuity errors : sum local = 9.71572e-15, global = 1.91773e-15, cumulative = 5.83285e-11
PIMPLE: Iteration 2
smoothSolver:  Solving for Ux, Initial residual = 0.00277669, Final residual = 1.99842e-10, No Iterations 1
smoothSolver:  Solving for Uy, Initial residual = 0.00135663, Final residual = 1.79131e-11, No Iterations 1
smoothSolver:  Solving for Uz, Initial residual = 0.00038228, Final residual = 3.18306e-11, No Iterations 1
GAMG:  Solving for p, Initial residual = 0.157405, Final residual = 0.00152559, No Iterations 3
time step continuity errors : sum local = 1.56891e-11, global = 2.8533e-13, cumulative = 5.86138e-11
GAMG:  Solving for p, Initial residual = 0.0430743, Final residual = 6.68885e-07, No Iterations 11
time step continuity errors : sum local = 7.64682e-15, global = 1.13679e-15, cumulative = 5.86149e-11
PIMPLE: Iteration 3
smoothSolver:  Solving for Ux, Initial residual = 0.00109626, Final residual = 9.41301e-11, No Iterations 1
smoothSolver:  Solving for Uy, Initial residual = 0.000574769, Final residual = 7.06715e-12, No Iterations 1
smoothSolver:  Solving for Uz, Initial residual = 0.000153997, Final residual = 1.46508e-11, No Iterations 1
GAMG:  Solving for p, Initial residual = 0.035208, Final residual = 0.000662177, No Iterations 2
time step continuity errors : sum local = 7.55115e-12, global = 4.97184e-14, cumulative = 5.86647e-11
GAMG:  Solving for p, Initial residual = 0.0104984, Final residual = 5.99731e-07, No Iterations 9
time step continuity errors : sum local = 7.00662e-15, global = 1.22797e-15, cumulative = 5.86659e-11
PIMPLE: Iteration 4
smoothSolver:  Solving for Ux, Initial residual = 0.000247579, Final residual = 3.12664e-11, No Iterations 1
smoothSolver:  Solving for Uy, Initial residual = 0.000165904, Final residual = 1.6449e-12, No Iterations 1
smoothSolver:  Solving for Uz, Initial residual = 3.51577e-05, Final residual = 4.60045e-12, No Iterations 1
GAMG:  Solving for p, Initial residual = 0.00823758, Final residual = 0.00014367, No Iterations 2
time step continuity errors : sum local = 1.67548e-12, global = 1.88352e-15, cumulative = 5.86678e-11
GAMG:  Solving for p, Initial residual = 0.00249611, Final residual = 9.3533e-07, No Iterations 6
time step continuity errors : sum local = 1.09686e-14, global = -1.73501e-15, cumulative = 5.8666e-11
PIMPLE: Iteration 5
smoothSolver:  Solving for Ux, Initial residual = 3.46775e-05, Final residual = 9.10635e-12, No Iterations 1
smoothSolver:  Solving for Uy, Initial residual = 3.80766e-05, Final residual = 2.51491e-13, No Iterations 1
smoothSolver:  Solving for Uz, Initial residual = 4.78985e-06, Final residual = 4.78985e-06, No Iterations 0
GAMG:  Solving for p, Initial residual = 0.00208508, Final residual = 4.08286e-05, No Iterations 2
time step continuity errors : sum local = 4.78484e-13, global = -3.70622e-15, cumulative = 5.86623e-11
GAMG:  Solving for p, Initial residual = 0.000636352, Final residual = 6.29427e-07, No Iterations 5
time step continuity errors : sum local = 7.38593e-15, global = -1.36348e-15, cumulative = 5.8661e-11
PIMPLE: Iteration 6
smoothSolver:  Solving for Ux, Initial residual = 1.63805e-05, Final residual = 2.60429e-12, No Iterations 1
smoothSolver:  Solving for Uy, Initial residual = 7.82619e-06, Final residual = 7.82619e-06, No Iterations 0
smoothSolver:  Solving for Uz, Initial residual = 2.25032e-06, Final residual = 2.25032e-06, No Iterations 0
GAMG:  Solving for p, Initial residual = 0.000616967, Final residual = 4.46796e-06, No Iterations 3
time step continuity errors : sum local = 5.24186e-14, global = -2.27941e-15, cumulative = 5.86587e-11
GAMG:  Solving for p, Initial residual = 0.000185982, Final residual = 5.17216e-07, No Iterations 4
time step continuity errors : sum local = 6.06989e-15, global = -1.22252e-15, cumulative = 5.86575e-11
PIMPLE: Iteration 7
smoothSolver:  Solving for Ux, Initial residual = 6.00719e-06, Final residual = 6.00719e-06, No Iterations 0
smoothSolver:  Solving for Uy, Initial residual = 2.48366e-06, Final residual = 2.48366e-06, No Iterations 0
smoothSolver:  Solving for Uz, Initial residual = 8.39781e-07, Final residual = 8.39781e-07, No Iterations 0
GAMG:  Solving for p, Initial residual = 0.000167949, Final residual = 1.58707e-06, No Iterations 3
time step continuity errors : sum local = 1.86246e-14, global = -1.32508e-15, cumulative = 5.86561e-11
GAMG:  Solving for p, Initial residual = 5.06503e-05, Final residual = 5.76875e-07, No Iterations 3
time step continuity errors : sum local = 6.7703e-15, global = -1.12286e-15, cumulative = 5.8655e-11
PIMPLE: Converged 
        Doing final iteration
PIMPLE: Iteration 8
smoothSolver:  Solving for Ux, Initial residual = 1.95375e-06, Final residual = 3.53403e-13, No Iterations 1
smoothSolver:  Solving for Uy, Initial residual = 8.3156e-07, Final residual = 8.3156e-07, No Iterations 0
smoothSolver:  Solving for Uz, Initial residual = 2.83394e-07, Final residual = 2.83394e-07, No Iterations 0
GAMG:  Solving for p, Initial residual = 0.956546, Final residual = 0.0108172, No Iterations 3
time step continuity errors : sum local = 8.12186e-11, global = -3.70418e-13, cumulative = 5.82846e-11
GAMG:  Solving for p, Initial residual = 0.306535, Final residual = 7.52926e-07, No Iterations 18
time step continuity errors : sum local = 2.57771e-16, global = -6.06353e-17, cumulative = 5.82845e-11
PIMPLE: Converged in 8 iterations
ExecutionTime = 33.58 s  ClockTime = 74 s

Courant Number mean: 3.38511e-06 max: 0.000894582
deltaT = 2.06565e-05
Time = 6.42437e-05

PIMPLE: Iteration 1
smoothSolver:  Solving for Ux, Initial residual = 6.20571e-05, Final residual = 1.48986e-11, No Iterations 1
smoothSolver:  Solving for Uy, Initial residual = 2.52115e-06, Final residual = 2.52115e-06, No Iterations 0
smoothSolver:  Solving for Uz, Initial residual = 8.68578e-06, Final residual = 8.68578e-06, No Iterations 0
GAMG:  Solving for p, Initial residual = 0.998771, Final residual = 0.012429, No Iterations 3
time step continuity errors : sum local = 9.06874e-11, global = 4.41985e-13, cumulative = 5.87265e-11
GAMG:  Solving for p, Initial residual = 0.178141, Final residual = 5.65929e-07, No Iterations 13
time step continuity errors : sum local = 7.07193e-15, global = 1.15089e-15, cumulative = 5.87277e-11
PIMPLE: Iteration 2
smoothSolver:  Solving for Ux, Initial residual = 0.00281915, Final residual = 2.41558e-10, No Iterations 1
smoothSolver:  Solving for Uy, Initial residual = 0.00135419, Final residual = 2.18004e-11, No Iterations 1
smoothSolver:  Solving for Uz, Initial residual = 0.000392347, Final residual = 3.89089e-11, No Iterations 1
GAMG:  Solving for p, Initial residual = 0.156454, Final residual = 0.00149067, No Iterations 3
time step continuity errors : sum local = 1.84807e-11, global = 7.46367e-14, cumulative = 5.88023e-11
GAMG:  Solving for p, Initial residual = 0.0428545, Final residual = 5.72647e-07, No Iterations 11
time step continuity errors : sum local = 7.88331e-15, global = 1.20884e-15, cumulative = 5.88035e-11
PIMPLE: Iteration 3
smoothSolver:  Solving for Ux, Initial residual = 0.00106437, Final residual = 1.08191e-10, No Iterations 1
smoothSolver:  Solving for Uy, Initial residual = 0.000572498, Final residual = 8.2289e-12, No Iterations 1
smoothSolver:  Solving for Uz, Initial residual = 0.000147494, Final residual = 1.69248e-11, No Iterations 1
GAMG:  Solving for p, Initial residual = 0.0351613, Final residual = 0.000662616, No Iterations 2
time step continuity errors : sum local = 9.068e-12, global = 4.12276e-15, cumulative = 5.88076e-11
GAMG:  Solving for p, Initial residual = 0.0104899, Final residual = 5.36414e-07, No Iterations 9
time step continuity errors : sum local = 7.52004e-15, global = -2.22237e-15, cumulative = 5.88054e-11
PIMPLE: Iteration 4
smoothSolver:  Solving for Ux, Initial residual = 0.000231749, Final residual = 3.51818e-11, No Iterations 1
smoothSolver:  Solving for Uy, Initial residual = 0.000164497, Final residual = 1.86987e-12, No Iterations 1
smoothSolver:  Solving for Uz, Initial residual = 3.21723e-05, Final residual = 5.23725e-12, No Iterations 1
GAMG:  Solving for p, Initial residual = 0.00823275, Final residual = 0.000144005, No Iterations 2
time step continuity errors : sum local = 2.01385e-12, global = -3.68897e-15, cumulative = 5.88017e-11
GAMG:  Solving for p, Initial residual = 0.00249486, Final residual = 9.93531e-07, No Iterations 6
time step continuity errors : sum local = 1.39713e-14, global = -2.64448e-15, cumulative = 5.87991e-11
PIMPLE: Iteration 5
smoothSolver:  Solving for Ux, Initial residual = 2.91579e-05, Final residual = 1.04125e-11, No Iterations 1
smoothSolver:  Solving for Uy, Initial residual = 3.74495e-05, Final residual = 2.8707e-13, No Iterations 1
smoothSolver:  Solving for Uz, Initial residual = 4.09393e-06, Final residual = 4.09393e-06, No Iterations 0
GAMG:  Solving for p, Initial residual = 0.00208334, Final residual = 4.05702e-05, No Iterations 2
time step continuity errors : sum local = 5.70101e-13, global = -3.27776e-15, cumulative = 5.87958e-11
GAMG:  Solving for p, Initial residual = 0.000635611, Final residual = 6.16096e-07, No Iterations 5
time step continuity errors : sum local = 8.66863e-15, global = -1.64696e-15, cumulative = 5.87942e-11
PIMPLE: Iteration 6
smoothSolver:  Solving for Ux, Initial residual = 1.66215e-05, Final residual = 3.12338e-12, No Iterations 1
smoothSolver:  Solving for Uy, Initial residual = 7.82464e-06, Final residual = 7.82464e-06, No Iterations 0
smoothSolver:  Solving for Uz, Initial residual = 2.30325e-06, Final residual = 2.30325e-06, No Iterations 0
GAMG:  Solving for p, Initial residual = 0.000616529, Final residual = 4.39972e-06, No Iterations 3
time step continuity errors : sum local = 6.1894e-14, global = -1.93547e-15, cumulative = 5.87922e-11
GAMG:  Solving for p, Initial residual = 0.00018582, Final residual = 5.09291e-07, No Iterations 4
time step continuity errors : sum local = 7.16678e-15, global = -1.35464e-15, cumulative = 5.87909e-11
PIMPLE: Iteration 7
smoothSolver:  Solving for Ux, Initial residual = 5.89003e-06, Final residual = 5.89003e-06, No Iterations 0
smoothSolver:  Solving for Uy, Initial residual = 2.48073e-06, Final residual = 2.48073e-06, No Iterations 0
smoothSolver:  Solving for Uz, Initial residual = 8.17812e-07, Final residual = 8.17812e-07, No Iterations 0
GAMG:  Solving for p, Initial residual = 0.000167861, Final residual = 1.56771e-06, No Iterations 3
time step continuity errors : sum local = 2.20603e-14, global = -1.28192e-15, cumulative = 5.87896e-11
GAMG:  Solving for p, Initial residual = 5.06159e-05, Final residual = 5.7978e-07, No Iterations 3
time step continuity errors : sum local = 8.15911e-15, global = -1.1402e-15, cumulative = 5.87884e-11
PIMPLE: Converged 
        Doing final iteration
PIMPLE: Iteration 8
smoothSolver:  Solving for Ux, Initial residual = 1.89691e-06, Final residual = 4.11073e-13, No Iterations 1
smoothSolver:  Solving for Uy, Initial residual = 8.26794e-07, Final residual = 8.26794e-07, No Iterations 0
smoothSolver:  Solving for Uz, Initial residual = 2.73243e-07, Final residual = 2.73243e-07, No Iterations 0
GAMG:  Solving for p, Initial residual = 0.956603, Final residual = 0.0108174, No Iterations 3
time step continuity errors : sum local = 9.73872e-11, global = -4.43788e-13, cumulative = 5.83447e-11
GAMG:  Solving for p, Initial residual = 0.306715, Final residual = 7.5599e-07, No Iterations 18
time step continuity errors : sum local = 3.09988e-16, global = -7.29211e-17, cumulative = 5.83446e-11
PIMPLE: Converged in 8 iterations
ExecutionTime = 41.76 s  ClockTime = 89 s

Courant Number mean: 4.05932e-06 max: 0.00106981
deltaT = 2.47774e-05
Time = 8.90212e-05

PIMPLE: Iteration 1
smoothSolver:  Solving for Ux, Initial residual = 6.18721e-05, Final residual = 1.87776e-11, No Iterations 1
smoothSolver:  Solving for Uy, Initial residual = 2.63038e-06, Final residual = 2.63038e-06, No Iterations 0
smoothSolver:  Solving for Uz, Initial residual = 8.67454e-06, Final residual = 8.67454e-06, No Iterations 0
GAMG:  Solving for p, Initial residual = 0.99877, Final residual = 0.0124284, No Iterations 3
time step continuity errors : sum local = 1.08771e-10, global = 5.29929e-13, cumulative = 5.88745e-11
GAMG:  Solving for p, Initial residual = 0.178142, Final residual = 5.67671e-07, No Iterations 13
time step continuity errors : sum local = 8.50858e-15, global = 1.38701e-15, cumulative = 5.88759e-11
PIMPLE: Iteration 2
smoothSolver:  Solving for Ux, Initial residual = 0.00281818, Final residual = 2.89937e-10, No Iterations 1
smoothSolver:  Solving for Uy, Initial residual = 0.00135253, Final residual = 2.61129e-11, No Iterations 1
smoothSolver:  Solving for Uz, Initial residual = 0.00039228, Final residual = 4.66931e-11, No Iterations 1
GAMG:  Solving for p, Initial residual = 0.156456, Final residual = 0.00149064, No Iterations 3
time step continuity errors : sum local = 2.21659e-11, global = 8.94996e-14, cumulative = 5.89654e-11
GAMG:  Solving for p, Initial residual = 0.0428555, Final residual = 5.72974e-07, No Iterations 11
time step continuity errors : sum local = 9.46089e-15, global = 1.45076e-15, cumulative = 5.89668e-11
PIMPLE: Iteration 3
smoothSolver:  Solving for Ux, Initial residual = 0.00106401, Final residual = 1.29826e-10, No Iterations 1
smoothSolver:  Solving for Uy, Initial residual = 0.000571796, Final residual = 9.85651e-12, No Iterations 1
smoothSolver:  Solving for Uz, Initial residual = 0.000147472, Final residual = 2.03073e-11, No Iterations 1
GAMG:  Solving for p, Initial residual = 0.0351622, Final residual = 0.000662638, No Iterations 2
time step continuity errors : sum local = 1.08768e-11, global = 4.94961e-15, cumulative = 5.89718e-11
GAMG:  Solving for p, Initial residual = 0.0104901, Final residual = 5.364e-07, No Iterations 9
time step continuity errors : sum local = 9.0195e-15, global = -2.66491e-15, cumulative = 5.89691e-11
PIMPLE: Iteration 4
smoothSolver:  Solving for Ux, Initial residual = 0.000231676, Final residual = 4.22124e-11, No Iterations 1
smoothSolver:  Solving for Uy, Initial residual = 0.000164295, Final residual = 2.23968e-12, No Iterations 1
smoothSolver:  Solving for Uz, Initial residual = 3.21684e-05, Final residual = 6.28382e-12, No Iterations 1
GAMG:  Solving for p, Initial residual = 0.00823283, Final residual = 0.000144005, No Iterations 2
time step continuity errors : sum local = 2.41547e-12, global = -4.42174e-15, cumulative = 5.89647e-11
GAMG:  Solving for p, Initial residual = 0.00249489, Final residual = 9.93454e-07, No Iterations 6
time step continuity errors : sum local = 1.67563e-14, global = -3.17329e-15, cumulative = 5.89615e-11
PIMPLE: Iteration 5
smoothSolver:  Solving for Ux, Initial residual = 2.91526e-05, Final residual = 1.24916e-11, No Iterations 1
smoothSolver:  Solving for Uy, Initial residual = 3.7404e-05, Final residual = 3.43788e-13, No Iterations 1
smoothSolver:  Solving for Uz, Initial residual = 4.09402e-06, Final residual = 4.09402e-06, No Iterations 0
GAMG:  Solving for p, Initial residual = 0.00208335, Final residual = 4.05694e-05, No Iterations 2
time step continuity errors : sum local = 6.83781e-13, global = -3.93184e-15, cumulative = 5.89576e-11
GAMG:  Solving for p, Initial residual = 0.000635616, Final residual = 6.16044e-07, No Iterations 5
time step continuity errors : sum local = 1.03965e-14, global = -1.97632e-15, cumulative = 5.89556e-11
PIMPLE: Iteration 6
smoothSolver:  Solving for Ux, Initial residual = 1.6618e-05, Final residual = 3.74674e-12, No Iterations 1
smoothSolver:  Solving for Uy, Initial residual = 7.8151e-06, Final residual = 7.8151e-06, No Iterations 0
smoothSolver:  Solving for Uz, Initial residual = 2.30322e-06, Final residual = 2.30322e-06, No Iterations 0
GAMG:  Solving for p, Initial residual = 0.000616532, Final residual = 4.39961e-06, No Iterations 3
time step continuity errors : sum local = 7.42357e-14, global = -2.32215e-15, cumulative = 5.89533e-11
GAMG:  Solving for p, Initial residual = 0.000185821, Final residual = 5.09301e-07, No Iterations 4
time step continuity errors : sum local = 8.59621e-15, global = -1.62538e-15, cumulative = 5.89517e-11
PIMPLE: Iteration 7
smoothSolver:  Solving for Ux, Initial residual = 5.88853e-06, Final residual = 5.88853e-06, No Iterations 0
smoothSolver:  Solving for Uy, Initial residual = 2.47769e-06, Final residual = 2.47769e-06, No Iterations 0
smoothSolver:  Solving for Uz, Initial residual = 8.17782e-07, Final residual = 8.17782e-07, No Iterations 0
GAMG:  Solving for p, Initial residual = 0.000167862, Final residual = 1.56775e-06, No Iterations 3
time step continuity errors : sum local = 2.64603e-14, global = -1.53813e-15, cumulative = 5.89501e-11
GAMG:  Solving for p, Initial residual = 5.06162e-05, Final residual = 5.79795e-07, No Iterations 3
time step continuity errors : sum local = 9.78651e-15, global = -1.36806e-15, cumulative = 5.89488e-11
PIMPLE: Converged 
        Doing final iteration
PIMPLE: Iteration 8
smoothSolver:  Solving for Ux, Initial residual = 1.8965e-06, Final residual = 4.93098e-13, No Iterations 1
smoothSolver:  Solving for Uy, Initial residual = 8.25785e-07, Final residual = 8.25785e-07, No Iterations 0
smoothSolver:  Solving for Uz, Initial residual = 2.73245e-07, Final residual = 2.73245e-07, No Iterations 0
GAMG:  Solving for p, Initial residual = 0.956653, Final residual = 0.0108175, No Iterations 3
time step continuity errors : sum local = 1.16807e-10, global = -5.32069e-13, cumulative = 5.84167e-11
GAMG:  Solving for p, Initial residual = 0.306844, Final residual = 7.58828e-07, No Iterations 18
time step continuity errors : sum local = 3.72828e-16, global = -8.77075e-17, cumulative = 5.84166e-11
PIMPLE: Converged in 8 iterations
ExecutionTime = 49.63 s  ClockTime = 107 s

Courant Number mean: 4.86916e-06 max: 0.00127908
deltaT = 2.96736e-05
Time = 0.000118695

PIMPLE: Iteration 1
smoothSolver:  Solving for Ux, Initial residual = 6.18259e-05, Final residual = 2.38287e-11, No Iterations 1
smoothSolver:  Solving for Uy, Initial residual = 2.76094e-06, Final residual = 2.76094e-06, No Iterations 0
smoothSolver:  Solving for Uz, Initial residual = 8.67963e-06, Final residual = 8.67963e-06, No Iterations 0
GAMG:  Solving for p, Initial residual = 0.998767, Final residual = 0.0124278, No Iterations 3
time step continuity errors : sum local = 1.30254e-10, global = 6.34336e-13, cumulative = 5.9051e-11
GAMG:  Solving for p, Initial residual = 0.178142, Final residual = 5.69389e-07, No Iterations 13
time step continuity errors : sum local = 1.02204e-14, global = 1.66884e-15, cumulative = 5.90526e-11
PIMPLE: Iteration 2
smoothSolver:  Solving for Ux, Initial residual = 0.0028172, Final residual = 3.47513e-10, No Iterations 1
smoothSolver:  Solving for Uy, Initial residual = 0.00135066, Final residual = 3.12251e-11, No Iterations 1
smoothSolver:  Solving for Uz, Initial residual = 0.00039223, Final residual = 5.59578e-11, No Iterations 1
GAMG:  Solving for p, Initial residual = 0.156459, Final residual = 0.00149061, No Iterations 3
time step continuity errors : sum local = 2.65437e-11, global = 1.0714e-13, cumulative = 5.91598e-11
GAMG:  Solving for p, Initial residual = 0.0428563, Final residual = 5.73285e-07, No Iterations 11
time step continuity errors : sum local = 1.13358e-14, global = 1.73827e-15, cumulative = 5.91615e-11
PIMPLE: Iteration 3
smoothSolver:  Solving for Ux, Initial residual = 0.00106365, Final residual = 1.55559e-10, No Iterations 1
smoothSolver:  Solving for Uy, Initial residual = 0.000571006, Final residual = 1.17856e-11, No Iterations 1
smoothSolver:  Solving for Uz, Initial residual = 0.000147455, Final residual = 2.43304e-11, No Iterations 1
GAMG:  Solving for p, Initial residual = 0.0351629, Final residual = 0.000662658, No Iterations 2
time step continuity errors : sum local = 1.30256e-11, global = 5.93044e-15, cumulative = 5.91674e-11
GAMG:  Solving for p, Initial residual = 0.0104903, Final residual = 5.36366e-07, No Iterations 9
time step continuity errors : sum local = 1.08004e-14, global = -3.19097e-15, cumulative = 5.91642e-11
PIMPLE: Iteration 4
smoothSolver:  Solving for Ux, Initial residual = 0.000231601, Final residual = 5.05716e-11, No Iterations 1
smoothSolver:  Solving for Uy, Initial residual = 0.000164069, Final residual = 2.67769e-12, No Iterations 1
smoothSolver:  Solving for Uz, Initial residual = 3.21656e-05, Final residual = 7.52838e-12, No Iterations 1
GAMG:  Solving for p, Initial residual = 0.00823289, Final residual = 0.000144005, No Iterations 2
time step continuity errors : sum local = 2.89258e-12, global = -5.2921e-15, cumulative = 5.91589e-11
GAMG:  Solving for p, Initial residual = 0.00249491, Final residual = 9.93375e-07, No Iterations 6
time step continuity errors : sum local = 2.00645e-14, global = -3.80184e-15, cumulative = 5.91551e-11
PIMPLE: Iteration 5
smoothSolver:  Solving for Ux, Initial residual = 2.91471e-05, Final residual = 1.49628e-11, No Iterations 1
smoothSolver:  Solving for Uy, Initial residual = 3.73527e-05, Final residual = 4.10638e-13, No Iterations 1
smoothSolver:  Solving for Uz, Initial residual = 4.09426e-06, Final residual = 4.09426e-06, No Iterations 0
GAMG:  Solving for p, Initial residual = 0.00208335, Final residual = 4.05686e-05, No Iterations 2
time step continuity errors : sum local = 8.1883e-13, global = -4.70892e-15, cumulative = 5.91504e-11
GAMG:  Solving for p, Initial residual = 0.000635619, Final residual = 6.1599e-07, No Iterations 5
time step continuity errors : sum local = 1.2449e-14, global = -2.36778e-15, cumulative = 5.91481e-11
PIMPLE: Iteration 6
smoothSolver:  Solving for Ux, Initial residual = 1.66145e-05, Final residual = 4.48755e-12, No Iterations 1
smoothSolver:  Solving for Uy, Initial residual = 7.80434e-06, Final residual = 7.80434e-06, No Iterations 0
smoothSolver:  Solving for Uz, Initial residual = 2.3033e-06, Final residual = 2.3033e-06, No Iterations 0
GAMG:  Solving for p, Initial residual = 0.000616532, Final residual = 4.39951e-06, No Iterations 3
time step continuity errors : sum local = 8.88971e-14, global = -2.78163e-15, cumulative = 5.91453e-11
GAMG:  Solving for p, Initial residual = 0.000185822, Final residual = 5.09311e-07, No Iterations 4
time step continuity errors : sum local = 1.02944e-14, global = -1.94713e-15, cumulative = 5.91433e-11
PIMPLE: Iteration 7
smoothSolver:  Solving for Ux, Initial residual = 5.88702e-06, Final residual = 5.88702e-06, No Iterations 0
smoothSolver:  Solving for Uy, Initial residual = 2.47427e-06, Final residual = 2.47427e-06, No Iterations 0
smoothSolver:  Solving for Uz, Initial residual = 8.17788e-07, Final residual = 8.17788e-07, No Iterations 0
GAMG:  Solving for p, Initial residual = 0.000167862, Final residual = 1.56778e-06, No Iterations 3
time step continuity errors : sum local = 3.16875e-14, global = -1.84259e-15, cumulative = 5.91415e-11
GAMG:  Solving for p, Initial residual = 5.06163e-05, Final residual = 5.7981e-07, No Iterations 3
time step continuity errors : sum local = 1.17199e-14, global = -1.63883e-15, cumulative = 5.91399e-11
PIMPLE: Converged 
        Doing final iteration
PIMPLE: Iteration 8
smoothSolver:  Solving for Ux, Initial residual = 1.8961e-06, Final residual = 5.90579e-13, No Iterations 1
smoothSolver:  Solving for Uy, Initial residual = 8.24647e-07, Final residual = 8.24647e-07, No Iterations 0
smoothSolver:  Solving for Uz, Initial residual = 2.73257e-07, Final residual = 2.73257e-07, No Iterations 0
GAMG:  Solving for p, Initial residual = 0.956701, Final residual = 0.0108176, No Iterations 3
time step continuity errors : sum local = 1.39877e-10, global = -6.36901e-13, cumulative = 5.8503e-11
GAMG:  Solving for p, Initial residual = 0.306963, Final residual = 7.61595e-07, No Iterations 18
time step continuity errors : sum local = 4.47659e-16, global = -1.05317e-16, cumulative = 5.85029e-11
PIMPLE: Converged in 8 iterations
ExecutionTime = 57.4 s  ClockTime = 119 s

Courant Number mean: 5.83132e-06 max: 0.00152596
deltaT = 3.55443e-05
Time = 0.000154239

PIMPLE: Iteration 1
smoothSolver:  Solving for Ux, Initial residual = 6.21105e-05, Final residual = 3.06222e-11, No Iterations 1
smoothSolver:  Solving for Uy, Initial residual = 2.92367e-06, Final residual = 2.92367e-06, No Iterations 0
smoothSolver:  Solving for Uz, Initial residual = 8.73461e-06, Final residual = 8.73461e-06, No Iterations 0
GAMG:  Solving for p, Initial residual = 0.99876, Final residual = 0.0124271, No Iterations 3
time step continuity errors : sum local = 1.5601e-10, global = 7.5946e-13, cumulative = 5.92623e-11
GAMG:  Solving for p, Initial residual = 0.178143, Final residual = 5.71098e-07, No Iterations 13
time step continuity errors : sum local = 1.22786e-14, global = 2.00826e-15, cumulative = 5.92643e-11
PIMPLE: Iteration 2
smoothSolver:  Solving for Ux, Initial residual = 0.00281622, Final residual = 4.16704e-10, No Iterations 1
smoothSolver:  Solving for Uy, Initial residual = 0.00134855, Final residual = 3.73413e-11, No Iterations 1
smoothSolver:  Solving for Uz, Initial residual = 0.000392199, Final residual = 6.70897e-11, No Iterations 1
GAMG:  Solving for p, Initial residual = 0.156461, Final residual = 0.00149057, No Iterations 3
time step continuity errors : sum local = 3.17924e-11, global = 1.28282e-13, cumulative = 5.93926e-11
GAMG:  Solving for p, Initial residual = 0.0428571, Final residual = 5.73596e-07, No Iterations 11
time step continuity errors : sum local = 1.3585e-14, global = 2.08318e-15, cumulative = 5.93947e-11
PIMPLE: Iteration 3
smoothSolver:  Solving for Ux, Initial residual = 0.00106328, Final residual = 1.86455e-10, No Iterations 1
smoothSolver:  Solving for Uy, Initial residual = 0.00057011, Final residual = 1.40934e-11, No Iterations 1
smoothSolver:  Solving for Uz, Initial residual = 0.000147446, Final residual = 2.91608e-11, No Iterations 1
GAMG:  Solving for p, Initial residual = 0.0351635, Final residual = 0.000662676, No Iterations 2
time step continuity errors : sum local = 1.5602e-11, global = 7.10681e-15, cumulative = 5.94018e-11
GAMG:  Solving for p, Initial residual = 0.0104904, Final residual = 5.36327e-07, No Iterations 9
time step continuity errors : sum local = 1.29353e-14, global = -3.82176e-15, cumulative = 5.9398e-11
PIMPLE: Iteration 4
smoothSolver:  Solving for Ux, Initial residual = 0.000231523, Final residual = 6.06034e-11, No Iterations 1
smoothSolver:  Solving for Uy, Initial residual = 0.000163811, Final residual = 3.20201e-12, No Iterations 1
smoothSolver:  Solving for Uz, Initial residual = 3.2164e-05, Final residual = 9.02225e-12, No Iterations 1
GAMG:  Solving for p, Initial residual = 0.0082329, Final residual = 0.000144004, No Iterations 2
time step continuity errors : sum local = 3.4646e-12, global = -6.33514e-15, cumulative = 5.93916e-11
GAMG:  Solving for p, Initial residual = 0.00249491, Final residual = 9.93293e-07, No Iterations 6
time step continuity errors : sum local = 2.40304e-14, global = -4.55575e-15, cumulative = 5.93871e-11
PIMPLE: Iteration 5
smoothSolver:  Solving for Ux, Initial residual = 2.9141e-05, Final residual = 1.79271e-11, No Iterations 1
smoothSolver:  Solving for Uy, Initial residual = 3.72944e-05, Final residual = 4.9105e-13, No Iterations 1
smoothSolver:  Solving for Uz, Initial residual = 4.09463e-06, Final residual = 4.09463e-06, No Iterations 0
GAMG:  Solving for p, Initial residual = 0.00208334, Final residual = 4.05677e-05, No Iterations 2
time step continuity errors : sum local = 9.80739e-13, global = -5.64064e-15, cumulative = 5.93814e-11
GAMG:  Solving for p, Initial residual = 0.000635618, Final residual = 6.15932e-07, No Iterations 5
time step continuity errors : sum local = 1.49095e-14, global = -2.83734e-15, cumulative = 5.93786e-11
PIMPLE: Iteration 6
smoothSolver:  Solving for Ux, Initial residual = 1.66111e-05, Final residual = 5.37602e-12, No Iterations 1
smoothSolver:  Solving for Uy, Initial residual = 7.79214e-06, Final residual = 7.79214e-06, No Iterations 0
smoothSolver:  Solving for Uz, Initial residual = 2.3035e-06, Final residual = 2.3035e-06, No Iterations 0
GAMG:  Solving for p, Initial residual = 0.000616528, Final residual = 4.39939e-06, No Iterations 3
time step continuity errors : sum local = 1.06474e-13, global = -3.33266e-15, cumulative = 5.93753e-11
GAMG:  Solving for p, Initial residual = 0.000185822, Final residual = 5.09319e-07, No Iterations 4
time step continuity errors : sum local = 1.23304e-14, global = -2.33302e-15, cumulative = 5.93729e-11
PIMPLE: Iteration 7
smoothSolver:  Solving for Ux, Initial residual = 5.88547e-06, Final residual = 5.88547e-06, No Iterations 0
smoothSolver:  Solving for Uy, Initial residual = 2.47038e-06, Final residual = 2.47038e-06, No Iterations 0
smoothSolver:  Solving for Uz, Initial residual = 8.17829e-07, Final residual = 8.17829e-07, No Iterations 0
GAMG:  Solving for p, Initial residual = 0.00016786, Final residual = 1.56781e-06, No Iterations 3
time step continuity errors : sum local = 3.79547e-14, global = -2.20775e-15, cumulative = 5.93707e-11
GAMG:  Solving for p, Initial residual = 5.0616e-05, Final residual = 5.79826e-07, No Iterations 3
time step continuity errors : sum local = 1.4038e-14, global = -1.96358e-15, cumulative = 5.93688e-11
PIMPLE: Converged 
        Doing final iteration
PIMPLE: Iteration 8
smoothSolver:  Solving for Ux, Initial residual = 1.89566e-06, Final residual = 7.07492e-13, No Iterations 1
smoothSolver:  Solving for Uy, Initial residual = 8.23355e-07, Final residual = 8.23355e-07, No Iterations 0
smoothSolver:  Solving for Uz, Initial residual = 2.73279e-07, Final residual = 2.73279e-07, No Iterations 0
GAMG:  Solving for p, Initial residual = 0.956749, Final residual = 0.0108177, No Iterations 3
time step continuity errors : sum local = 1.67536e-10, global = -7.62536e-13, cumulative = 5.86062e-11
GAMG:  Solving for p, Initial residual = 0.307069, Final residual = 7.6428e-07, No Iterations 18
time step continuity errors : sum local = 5.37568e-16, global = -1.26475e-16, cumulative = 5.86061e-11
PIMPLE: Converged in 8 iterations
ExecutionTime = 65.31 s  ClockTime = 131 s

Courant Number mean: 6.985e-06 max: 0.00181956
deltaT = 4.26223e-05
Time = 0.000196861

PIMPLE: Iteration 1
smoothSolver:  Solving for Ux, Initial residual = 6.27263e-05, Final residual = 3.99263e-11, No Iterations 1
smoothSolver:  Solving for Uy, Initial residual = 3.12366e-06, Final residual = 3.12366e-06, No Iterations 0
smoothSolver:  Solving for Uz, Initial residual = 8.84007e-06, Final residual = 8.84007e-06, No Iterations 0
GAMG:  Solving for p, Initial residual = 0.998748, Final residual = 0.0124265, No Iterations 3
time step continuity errors : sum local = 1.87061e-10, global = 9.10242e-13, cumulative = 5.95163e-11
GAMG:  Solving for p, Initial residual = 0.178143, Final residual = 5.72786e-07, No Iterations 13
time step continuity errors : sum local = 1.47666e-14, global = 2.41919e-15, cumulative = 5.95188e-11
PIMPLE: Iteration 2
smoothSolver:  Solving for Ux, Initial residual = 0.00281524, Final residual = 5.00348e-10, No Iterations 1
smoothSolver:  Solving for Uy, Initial residual = 0.00134615, Final residual = 4.46971e-11, No Iterations 1
smoothSolver:  Solving for Uz, Initial residual = 0.000392192, Final residual = 8.05456e-11, No Iterations 1
GAMG:  Solving for p, Initial residual = 0.156463, Final residual = 0.00149053, No Iterations 3
time step continuity errors : sum local = 3.81196e-11, global = 1.53759e-13, cumulative = 5.96725e-11
GAMG:  Solving for p, Initial residual = 0.0428578, Final residual = 5.73904e-07, No Iterations 11
time step continuity errors : sum local = 1.62979e-14, global = 2.49922e-15, cumulative = 5.9675e-11
PIMPLE: Iteration 3
smoothSolver:  Solving for Ux, Initial residual = 0.0010629, Final residual = 2.23767e-10, No Iterations 1
smoothSolver:  Solving for Uy, Initial residual = 0.00056909, Final residual = 1.68683e-11, No Iterations 1
smoothSolver:  Solving for Uz, Initial residual = 0.000147443, Final residual = 3.49947e-11, No Iterations 1
GAMG:  Solving for p, Initial residual = 0.0351639, Final residual = 0.000662693, No Iterations 2
time step continuity errors : sum local = 1.87079e-11, global = 8.52544e-15, cumulative = 5.96835e-11
GAMG:  Solving for p, Initial residual = 0.0104905, Final residual = 5.36272e-07, No Iterations 9
time step continuity errors : sum local = 1.55085e-14, global = -4.58233e-15, cumulative = 5.9679e-11
PIMPLE: Iteration 4
smoothSolver:  Solving for Ux, Initial residual = 0.000231441, Final residual = 7.27115e-11, No Iterations 1
smoothSolver:  Solving for Uy, Initial residual = 0.000163518, Final residual = 3.8324e-12, No Iterations 1
smoothSolver:  Solving for Uz, Initial residual = 3.21639e-05, Final residual = 1.08258e-11, No Iterations 1
GAMG:  Solving for p, Initial residual = 0.00823286, Final residual = 0.000144004, No Iterations 2
time step continuity errors : sum local = 4.15419e-12, global = -7.59208e-15, cumulative = 5.96714e-11
GAMG:  Solving for p, Initial residual = 0.0024949, Final residual = 9.93204e-07, No Iterations 6
time step continuity errors : sum local = 2.8811e-14, global = -5.465e-15, cumulative = 5.96659e-11
PIMPLE: Iteration 5
smoothSolver:  Solving for Ux, Initial residual = 2.91345e-05, Final residual = 2.15032e-11, No Iterations 1
smoothSolver:  Solving for Uy, Initial residual = 3.72278e-05, Final residual = 5.87735e-13, No Iterations 1
smoothSolver:  Solving for Uz, Initial residual = 4.09519e-06, Final residual = 4.09519e-06, No Iterations 0
GAMG:  Solving for p, Initial residual = 0.00208332, Final residual = 4.05667e-05, No Iterations 2
time step continuity errors : sum local = 1.17592e-12, global = -6.76397e-15, cumulative = 5.96591e-11
GAMG:  Solving for p, Initial residual = 0.000635613, Final residual = 6.1587e-07, No Iterations 5
time step continuity errors : sum local = 1.78754e-14, global = -3.40366e-15, cumulative = 5.96557e-11
PIMPLE: Iteration 6
smoothSolver:  Solving for Ux, Initial residual = 1.66076e-05, Final residual = 6.44755e-12, No Iterations 1
smoothSolver:  Solving for Uy, Initial residual = 7.77821e-06, Final residual = 7.77821e-06, No Iterations 0
smoothSolver:  Solving for Uz, Initial residual = 2.30383e-06, Final residual = 2.30383e-06, No Iterations 0
GAMG:  Solving for p, Initial residual = 0.000616519, Final residual = 4.39925e-06, No Iterations 3
time step continuity errors : sum local = 1.27663e-13, global = -3.99712e-15, cumulative = 5.96517e-11
GAMG:  Solving for p, Initial residual = 0.00018582, Final residual = 5.09326e-07, No Iterations 4
time step continuity errors : sum local = 1.47849e-14, global = -2.7984e-15, cumulative = 5.96489e-11
PIMPLE: Iteration 7
smoothSolver:  Solving for Ux, Initial residual = 5.88388e-06, Final residual = 5.88388e-06, No Iterations 0
smoothSolver:  Solving for Uy, Initial residual = 2.46594e-06, Final residual = 2.46594e-06, No Iterations 0
smoothSolver:  Solving for Uz, Initial residual = 8.17913e-07, Final residual = 8.17913e-07, No Iterations 0
GAMG:  Solving for p, Initial residual = 0.000167857, Final residual = 1.56783e-06, No Iterations 3
time step continuity errors : sum local = 4.55102e-14, global = -2.6481e-15, cumulative = 5.96463e-11
GAMG:  Solving for p, Initial residual = 5.06153e-05, Final residual = 5.79841e-07, No Iterations 3
time step continuity errors : sum local = 1.68327e-14, global = -2.35521e-15, cumulative = 5.96439e-11
PIMPLE: Converged 
        Doing final iteration
PIMPLE: Iteration 8
smoothSolver:  Solving for Ux, Initial residual = 1.8952e-06, Final residual = 8.4849e-13, No Iterations 1
smoothSolver:  Solving for Uy, Initial residual = 8.21878e-07, Final residual = 8.21878e-07, No Iterations 0
smoothSolver:  Solving for Uz, Initial residual = 2.73314e-07, Final residual = 2.73314e-07, No Iterations 0
GAMG:  Solving for p, Initial residual = 0.956796, Final residual = 0.0108179, No Iterations 3
time step continuity errors : sum local = 2.0088e-10, global = -9.13936e-13, cumulative = 5.873e-11
GAMG:  Solving for p, Initial residual = 0.307155, Final residual = 7.66866e-07, No Iterations 18
time step continuity errors : sum local = 6.46169e-16, global = -1.52034e-16, cumulative = 5.87299e-11
PIMPLE: Converged in 8 iterations
ExecutionTime = 73.46 s  ClockTime = 143 s

Courant Number mean: 8.37595e-06 max: 0.00217014
deltaT = 5.1058e-05
Time = 0.000247919

PIMPLE: Iteration 1
smoothSolver:  Solving for Ux, Initial residual = 6.35624e-05, Final residual = 5.257e-11, No Iterations 1
smoothSolver:  Solving for Uy, Initial residual = 3.35991e-06, Final residual = 3.35991e-06, No Iterations 0
smoothSolver:  Solving for Uz, Initial residual = 8.98242e-06, Final residual = 8.98242e-06, No Iterations 0
GAMG:  Solving for p, Initial residual = 0.998735, Final residual = 0.0124258, No Iterations 3
time step continuity errors : sum local = 2.24063e-10, global = 1.08985e-12, cumulative = 5.98197e-11
GAMG:  Solving for p, Initial residual = 0.178143, Final residual = 5.7443e-07, No Iterations 13
time step continuity errors : sum local = 1.77391e-14, global = 2.91087e-15, cumulative = 5.98226e-11
PIMPLE: Iteration 2
smoothSolver:  Solving for Ux, Initial residual = 0.00281424, Final residual = 6.00358e-10, No Iterations 1
smoothSolver:  Solving for Uy, Initial residual = 0.00134341, Final residual = 5.34379e-11, No Iterations 1
smoothSolver:  Solving for Uz, Initial residual = 0.00039221, Final residual = 9.66318e-11, No Iterations 1
GAMG:  Solving for p, Initial residual = 0.156464, Final residual = 0.00149048, No Iterations 3
time step continuity errors : sum local = 4.56595e-11, global = 1.8411e-13, cumulative = 6.00067e-11
GAMG:  Solving for p, Initial residual = 0.0428585, Final residual = 5.74198e-07, No Iterations 11
time step continuity errors : sum local = 1.9532e-14, global = 2.99525e-15, cumulative = 6.00097e-11
PIMPLE: Iteration 3
smoothSolver:  Solving for Ux, Initial residual = 0.00106252, Final residual = 2.68323e-10, No Iterations 1
smoothSolver:  Solving for Uy, Initial residual = 0.000567921, Final residual = 2.01649e-11, No Iterations 1
smoothSolver:  Solving for Uz, Initial residual = 0.000147451, Final residual = 4.1962e-11, No Iterations 1
GAMG:  Solving for p, Initial residual = 0.0351642, Final residual = 0.000662707, No Iterations 2
time step continuity errors : sum local = 2.24092e-11, global = 1.02168e-14, cumulative = 6.00199e-11
GAMG:  Solving for p, Initial residual = 0.0104906, Final residual = 5.3618e-07, No Iterations 9
time step continuity errors : sum local = 1.85731e-14, global = -5.48866e-15, cumulative = 6.00145e-11
PIMPLE: Iteration 4
smoothSolver:  Solving for Ux, Initial residual = 0.000231358, Final residual = 8.7161e-11, No Iterations 1
smoothSolver:  Solving for Uy, Initial residual = 0.000163181, Final residual = 4.58127e-12, No Iterations 1
smoothSolver:  Solving for Uz, Initial residual = 3.21658e-05, Final residual = 1.2979e-11, No Iterations 1
GAMG:  Solving for p, Initial residual = 0.00823276, Final residual = 0.000144003, No Iterations 2
time step continuity errors : sum local = 4.97594e-12, global = -9.08917e-15, cumulative = 6.00054e-11
GAMG:  Solving for p, Initial residual = 0.00249488, Final residual = 9.93108e-07, No Iterations 6
time step continuity errors : sum local = 3.4507e-14, global = -6.54908e-15, cumulative = 5.99988e-11
PIMPLE: Iteration 5
smoothSolver:  Solving for Ux, Initial residual = 2.9128e-05, Final residual = 2.57682e-11, No Iterations 1
smoothSolver:  Solving for Uy, Initial residual = 3.71514e-05, Final residual = 7.02583e-13, No Iterations 1
smoothSolver:  Solving for Uz, Initial residual = 4.09604e-06, Final residual = 4.09604e-06, No Iterations 0
GAMG:  Solving for p, Initial residual = 0.00208328, Final residual = 4.05657e-05, No Iterations 2
time step continuity errors : sum local = 1.40851e-12, global = -8.10276e-15, cumulative = 5.99907e-11
GAMG:  Solving for p, Initial residual = 0.000635604, Final residual = 6.15805e-07, No Iterations 5
time step continuity errors : sum local = 2.14092e-14, global = -4.07885e-15, cumulative = 5.99866e-11
PIMPLE: Iteration 6
smoothSolver:  Solving for Ux, Initial residual = 1.66042e-05, Final residual = 7.72512e-12, No Iterations 1
smoothSolver:  Solving for Uy, Initial residual = 7.76225e-06, Final residual = 7.76225e-06, No Iterations 0
smoothSolver:  Solving for Uz, Initial residual = 2.30434e-06, Final residual = 2.30434e-06, No Iterations 0
GAMG:  Solving for p, Initial residual = 0.000616507, Final residual = 4.3991e-06, No Iterations 3
time step continuity errors : sum local = 1.52913e-13, global = -4.78917e-15, cumulative = 5.99818e-11
GAMG:  Solving for p, Initial residual = 0.000185817, Final residual = 5.09331e-07, No Iterations 4
time step continuity errors : sum local = 1.77098e-14, global = -3.35319e-15, cumulative = 5.99785e-11
PIMPLE: Iteration 7
smoothSolver:  Solving for Ux, Initial residual = 5.88228e-06, Final residual = 5.88228e-06, No Iterations 0
smoothSolver:  Solving for Uy, Initial residual = 2.46086e-06, Final residual = 2.46086e-06, No Iterations 0
smoothSolver:  Solving for Uz, Initial residual = 8.18052e-07, Final residual = 8.18052e-07, No Iterations 0
GAMG:  Solving for p, Initial residual = 0.000167853, Final residual = 1.56786e-06, No Iterations 3
time step continuity errors : sum local = 5.45139e-14, global = -3.17305e-15, cumulative = 5.99753e-11
GAMG:  Solving for p, Initial residual = 5.06141e-05, Final residual = 5.79858e-07, No Iterations 3
time step continuity errors : sum local = 2.01631e-14, global = -2.82206e-15, cumulative = 5.99725e-11
PIMPLE: Converged 
        Doing final iteration
PIMPLE: Iteration 8
smoothSolver:  Solving for Ux, Initial residual = 1.89473e-06, Final residual = 1.01662e-12, No Iterations 1
smoothSolver:  Solving for Uy, Initial residual = 8.20186e-07, Final residual = 8.20186e-07, No Iterations 0
smoothSolver:  Solving for Uz, Initial residual = 2.73367e-07, Final residual = 2.73367e-07, No Iterations 0
GAMG:  Solving for p, Initial residual = 0.956842, Final residual = 0.010818, No Iterations 3
time step continuity errors : sum local = 2.40616e-10, global = -1.09428e-12, cumulative = 5.88782e-11
GAMG:  Solving for p, Initial residual = 0.307219, Final residual = 7.69341e-07, No Iterations 18
time step continuity errors : sum local = 7.75842e-16, global = -1.82556e-16, cumulative = 5.8878e-11
PIMPLE: Converged in 8 iterations
ExecutionTime = 81.72 s  ClockTime = 154 s

Courant Number mean: 1.00337e-05 max: 0.00258305
deltaT = 6.09505e-05
Time = 0.00030887

PIMPLE: Iteration 1
smoothSolver:  Solving for Ux, Initial residual = 6.47049e-05, Final residual = 6.96327e-11, No Iterations 1
smoothSolver:  Solving for Uy, Initial residual = 3.63497e-06, Final residual = 3.63497e-06, No Iterations 0
smoothSolver:  Solving for Uz, Initial residual = 9.1739e-06, Final residual = 9.1739e-06, No Iterations 0
GAMG:  Solving for p, Initial residual = 0.99872, Final residual = 0.0124251, No Iterations 3
time step continuity errors : sum local = 2.6745e-10, global = 1.30037e-12, cumulative = 6.01784e-11
GAMG:  Solving for p, Initial residual = 0.178142, Final residual = 5.76024e-07, No Iterations 13
time step continuity errors : sum local = 2.12336e-14, global = 3.48983e-15, cumulative = 6.01819e-11
PIMPLE: Iteration 2
smoothSolver:  Solving for Ux, Initial residual = 0.00281321, Final residual = 7.18073e-10, No Iterations 1
smoothSolver:  Solving for Uy, Initial residual = 0.00134028, Final residual = 6.36514e-11, No Iterations 1
smoothSolver:  Solving for Uz, Initial residual = 0.000392257, Final residual = 1.1557e-10, No Iterations 1
GAMG:  Solving for p, Initial residual = 0.156465, Final residual = 0.00149044, No Iterations 3
time step continuity errors : sum local = 5.45002e-11, global = 2.19684e-13, cumulative = 6.04016e-11
GAMG:  Solving for p, Initial residual = 0.0428591, Final residual = 5.74478e-07, No Iterations 11
time step continuity errors : sum local = 2.33257e-14, global = 3.57716e-15, cumulative = 6.04052e-11
PIMPLE: Iteration 3
smoothSolver:  Solving for Ux, Initial residual = 0.00106212, Final residual = 3.20696e-10, No Iterations 1
smoothSolver:  Solving for Uy, Initial residual = 0.000566582, Final residual = 2.40158e-11, No Iterations 1
smoothSolver:  Solving for Uz, Initial residual = 0.00014747, Final residual = 5.01532e-11, No Iterations 1
GAMG:  Solving for p, Initial residual = 0.0351643, Final residual = 0.00066272, No Iterations 2
time step continuity errors : sum local = 2.67492e-11, global = 1.22009e-14, cumulative = 6.04174e-11
GAMG:  Solving for p, Initial residual = 0.0104906, Final residual = 5.36046e-07, No Iterations 9
time step continuity errors : sum local = 2.21642e-14, global = -6.55131e-15, cumulative = 6.04108e-11
PIMPLE: Iteration 4
smoothSolver:  Solving for Ux, Initial residual = 0.000231273, Final residual = 1.04132e-10, No Iterations 1
smoothSolver:  Solving for Uy, Initial residual = 0.000162796, Final residual = 5.45573e-12, No Iterations 1
smoothSolver:  Solving for Uz, Initial residual = 3.21702e-05, Final residual = 1.5509e-11, No Iterations 1
GAMG:  Solving for p, Initial residual = 0.0082326, Final residual = 0.000144002, No Iterations 2
time step continuity errors : sum local = 5.93946e-12, global = -1.08436e-14, cumulative = 6.04e-11
GAMG:  Solving for p, Initial residual = 0.00249484, Final residual = 9.93005e-07, No Iterations 6
time step continuity errors : sum local = 4.11848e-14, global = -7.8209e-15, cumulative = 6.03921e-11
PIMPLE: Iteration 5
smoothSolver:  Solving for Ux, Initial residual = 2.91216e-05, Final residual = 3.0774e-11, No Iterations 1
smoothSolver:  Solving for Uy, Initial residual = 3.70638e-05, Final residual = 8.3641e-13, No Iterations 1
smoothSolver:  Solving for Uz, Initial residual = 4.09723e-06, Final residual = 4.09723e-06, No Iterations 0
GAMG:  Solving for p, Initial residual = 0.00208322, Final residual = 4.05646e-05, No Iterations 2
time step continuity errors : sum local = 1.68121e-12, global = -9.67276e-15, cumulative = 6.03825e-11
GAMG:  Solving for p, Initial residual = 0.000635591, Final residual = 6.15737e-07, No Iterations 5
time step continuity errors : sum local = 2.55521e-14, global = -4.87094e-15, cumulative = 6.03776e-11
PIMPLE: Iteration 6
smoothSolver:  Solving for Ux, Initial residual = 1.66009e-05, Final residual = 9.22411e-12, No Iterations 1
smoothSolver:  Solving for Uy, Initial residual = 7.74394e-06, Final residual = 7.74394e-06, No Iterations 0
smoothSolver:  Solving for Uz, Initial residual = 2.30503e-06, Final residual = 2.30503e-06, No Iterations 0
GAMG:  Solving for p, Initial residual = 0.000616489, Final residual = 4.39895e-06, No Iterations 3
time step continuity errors : sum local = 1.82517e-13, global = -5.71817e-15, cumulative = 6.03719e-11
GAMG:  Solving for p, Initial residual = 0.000185812, Final residual = 5.09335e-07, No Iterations 4
time step continuity errors : sum local = 2.11394e-14, global = -4.00395e-15, cumulative = 6.03679e-11
PIMPLE: Iteration 7
smoothSolver:  Solving for Ux, Initial residual = 5.88065e-06, Final residual = 5.88065e-06, No Iterations 0
smoothSolver:  Solving for Uy, Initial residual = 2.45503e-06, Final residual = 2.45503e-06, No Iterations 0
smoothSolver:  Solving for Uz, Initial residual = 8.18256e-07, Final residual = 8.18256e-07, No Iterations 0
GAMG:  Solving for p, Initial residual = 0.000167847, Final residual = 1.56789e-06, No Iterations 3
time step continuity errors : sum local = 6.50713e-14, global = -3.7888e-15, cumulative = 6.03641e-11
GAMG:  Solving for p, Initial residual = 5.06125e-05, Final residual = 5.79875e-07, No Iterations 3
time step continuity errors : sum local = 2.40683e-14, global = -3.36967e-15, cumulative = 6.03607e-11
PIMPLE: Converged 
        Doing final iteration
PIMPLE: Iteration 8
smoothSolver:  Solving for Ux, Initial residual = 1.89424e-06, Final residual = 1.2139e-12, No Iterations 1
smoothSolver:  Solving for Uy, Initial residual = 8.18244e-07, Final residual = 8.18244e-07, No Iterations 0
smoothSolver:  Solving for Uz, Initial residual = 2.7344e-07, Final residual = 2.7344e-07, No Iterations 0
GAMG:  Solving for p, Initial residual = 0.956887, Final residual = 0.0108182, No Iterations 3
time step continuity errors : sum local = 2.87207e-10, global = -1.30564e-12, cumulative = 5.90551e-11
GAMG:  Solving for p, Initial residual = 0.307253, Final residual = 7.71689e-07, No Iterations 18
time step continuity errors : sum local = 9.28199e-16, global = -2.1842e-16, cumulative = 5.90549e-11
PIMPLE: Converged in 8 iterations
ExecutionTime = 89.61 s  ClockTime = 166 s

Courant Number mean: 1.19777e-05 max: 0.00306024
deltaT = 7.28656e-05
Time = 0.000381736

PIMPLE: Iteration 1
smoothSolver:  Solving for Ux, Initial residual = 6.67432e-05, Final residual = 9.37575e-11, No Iterations 1
smoothSolver:  Solving for Uy, Initial residual = 3.9795e-06, Final residual = 3.9795e-06, No Iterations 0
smoothSolver:  Solving for Uz, Initial residual = 9.49777e-06, Final residual = 9.49777e-06, No Iterations 0
GAMG:  Solving for p, Initial residual = 0.998694, Final residual = 0.0124243, No Iterations 3
time step continuity errors : sum local = 3.19701e-10, global = 1.55378e-12, cumulative = 6.06086e-11
GAMG:  Solving for p, Initial residual = 0.178141, Final residual = 5.7762e-07, No Iterations 13
time step continuity errors : sum local = 2.54535e-14, global = 4.19005e-15, cumulative = 6.06128e-11
PIMPLE: Iteration 2
smoothSolver:  Solving for Ux, Initial residual = 0.00281219, Final residual = 8.60517e-10, No Iterations 1
smoothSolver:  Solving for Uy, Initial residual = 0.00133668, Final residual = 7.59104e-11, No Iterations 1
smoothSolver:  Solving for Uz, Initial residual = 0.000392341, Final residual = 1.3849e-10, No Iterations 1
GAMG:  Solving for p, Initial residual = 0.156465, Final residual = 0.00149038, No Iterations 3
time step continuity errors : sum local = 6.51465e-11, global = 2.62506e-13, cumulative = 6.08753e-11
GAMG:  Solving for p, Initial residual = 0.0428594, Final residual = 5.74764e-07, No Iterations 11
time step continuity errors : sum local = 2.78969e-14, global = 4.27842e-15, cumulative = 6.08796e-11
PIMPLE: Iteration 3
smoothSolver:  Solving for Ux, Initial residual = 0.00106171, Final residual = 3.83955e-10, No Iterations 1
smoothSolver:  Solving for Uy, Initial residual = 0.000565042, Final residual = 2.86361e-11, No Iterations 1
smoothSolver:  Solving for Uz, Initial residual = 0.0001475, Final residual = 6.00502e-11, No Iterations 1
GAMG:  Solving for p, Initial residual = 0.0351641, Final residual = 0.000662729, No Iterations 2
time step continuity errors : sum local = 3.19757e-11, global = 1.45902e-14, cumulative = 6.08942e-11
GAMG:  Solving for p, Initial residual = 0.0104905, Final residual = 5.35911e-07, No Iterations 9
time step continuity errors : sum local = 2.64877e-14, global = -7.83183e-15, cumulative = 6.08864e-11
PIMPLE: Iteration 4
[...]
PIMPLE: Iteration 6
smoothSolver:  Solving for Ux, Initial residual = 9.29413e-06, Final residual = 9.29413e-06, No Iterations 0
smoothSolver:  Solving for Uy, Initial residual = 1.49294e-06, Final residual = 1.49294e-06, No Iterations 0
smoothSolver:  Solving for Uz, Initial residual = 1.56577e-06, Final residual = 1.56577e-06, No Iterations 0
GAMG:  Solving for p, Initial residual = 0.000553093, Final residual = 3.81797e-06, No Iterations 3
time step continuity errors : sum local = 4.02569e-12, global = -1.24846e-13, cumulative = 1.78919e-09
GAMG:  Solving for p, Initial residual = 0.000166997, Final residual = 4.38611e-07, No Iterations 4
time step continuity errors : sum local = 4.6237e-13, global = -8.99397e-14, cumulative = 1.7891e-09
PIMPLE: Converged 
        Doing final iteration
PIMPLE: Iteration 7
smoothSolver:  Solving for Ux, Initial residual = 4.15024e-06, Final residual = 6.62227e-11, No Iterations 1
smoothSolver:  Solving for Uy, Initial residual = 5.84759e-07, Final residual = 5.84759e-07, No Iterations 0
smoothSolver:  Solving for Uz, Initial residual = 7.07115e-07, Final residual = 7.07115e-07, No Iterations 0
GAMG:  Solving for p, Initial residual = 0.975485, Final residual = 0.0105001, No Iterations 3
time step continuity errors : sum local = 7.00898e-09, global = -1.9402e-11, cumulative = 1.76969e-09
GAMG:  Solving for p, Initial residual = 0.39488, Final residual = 5.8405e-07, No Iterations 18
time step continuity errors : sum local = 1.16059e-14, global = -2.82172e-15, cumulative = 1.76969e-09
PIMPLE: Converged in 7 iterations
ExecutionTime = 3851.7 s  ClockTime = 6113 s

Courant Number mean: 0.000392754 max: 0.0293041
deltaT = 0.002
Time = 0.896

PIMPLE: Iteration 1
smoothSolver:  Solving for Ux, Initial residual = 0.00019176, Final residual = 8.6274e-09, No Iterations 1
smoothSolver:  Solving for Uy, Initial residual = 1.11558e-05, Final residual = 5.96532e-11, No Iterations 1
smoothSolver:  Solving for Uz, Initial residual = 3.44499e-05, Final residual = 1.60262e-09, No Iterations 1
GAMG:  Solving for p, Initial residual = 0.994018, Final residual = 0.0111631, No Iterations 3
time step continuity errors : sum local = 6.55675e-09, global = 1.91941e-11, cumulative = 1.78888e-09
GAMG:  Solving for p, Initial residual = 0.176138, Final residual = 6.07316e-07, No Iterations 13
time step continuity errors : sum local = 6.07617e-13, global = 7.98277e-14, cumulative = 1.78896e-09
PIMPLE: Iteration 2
smoothSolver:  Solving for Ux, Initial residual = 0.00175407, Final residual = 1.38975e-08, No Iterations 1
smoothSolver:  Solving for Uy, Initial residual = 0.000280485, Final residual = 2.85697e-10, No Iterations 1
smoothSolver:  Solving for Uz, Initial residual = 0.000295433, Final residual = 2.48968e-09, No Iterations 1
GAMG:  Solving for p, Initial residual = 0.149225, Final residual = 0.00135791, No Iterations 3
time step continuity errors : sum local = 1.30925e-09, global = 3.30364e-12, cumulative = 1.79227e-09
GAMG:  Solving for p, Initial residual = 0.0412395, Final residual = 6.69497e-07, No Iterations 11
time step continuity errors : sum local = 7.09318e-13, global = 9.92333e-14, cumulative = 1.79237e-09
PIMPLE: Iteration 3
smoothSolver:  Solving for Ux, Initial residual = 0.000657018, Final residual = 5.86462e-09, No Iterations 1
smoothSolver:  Solving for Uy, Initial residual = 0.000119294, Final residual = 1.08815e-10, No Iterations 1
smoothSolver:  Solving for Uz, Initial residual = 0.000110046, Final residual = 1.03697e-09, No Iterations 1
GAMG:  Solving for p, Initial residual = 0.033144, Final residual = 0.00059578, No Iterations 2
time step continuity errors : sum local = 6.21355e-10, global = 2.99819e-13, cumulative = 1.79267e-09
GAMG:  Solving for p, Initial residual = 0.00991434, Final residual = 8.63854e-07, No Iterations 8
time step continuity errors : sum local = 9.15235e-13, global = -1.67609e-13, cumulative = 1.7925e-09
PIMPLE: Iteration 4
smoothSolver:  Solving for Ux, Initial residual = 0.00014259, Final residual = 1.8011e-09, No Iterations 1
smoothSolver:  Solving for Uy, Initial residual = 3.41736e-05, Final residual = 2.55744e-11, No Iterations 1
smoothSolver:  Solving for Uz, Initial residual = 2.38534e-05, Final residual = 3.13708e-10, No Iterations 1
GAMG:  Solving for p, Initial residual = 0.00736388, Final residual = 0.000124941, No Iterations 2
time step continuity errors : sum local = 1.31731e-10, global = -1.77212e-13, cumulative = 1.79232e-09
GAMG:  Solving for p, Initial residual = 0.00223522, Final residual = 7.77957e-07, No Iterations 6
time step continuity errors : sum local = 8.21359e-13, global = -1.86772e-13, cumulative = 1.79214e-09
PIMPLE: Iteration 5
smoothSolver:  Solving for Ux, Initial residual = 1.77318e-05, Final residual = 5.04266e-10, No Iterations 1
smoothSolver:  Solving for Uy, Initial residual = 7.60615e-06, Final residual = 7.60615e-06, No Iterations 0
smoothSolver:  Solving for Uz, Initial residual = 2.96642e-06, Final residual = 2.96642e-06, No Iterations 0
GAMG:  Solving for p, Initial residual = 0.00189214, Final residual = 3.58821e-05, No Iterations 2
time step continuity errors : sum local = 3.78412e-11, global = -1.97757e-13, cumulative = 1.79194e-09
GAMG:  Solving for p, Initial residual = 0.000576301, Final residual = 4.83134e-07, No Iterations 5
time step continuity errors : sum local = 5.09343e-13, global = -1.15088e-13, cumulative = 1.79182e-09
PIMPLE: Iteration 6
smoothSolver:  Solving for Ux, Initial residual = 9.28408e-06, Final residual = 9.28408e-06, No Iterations 0
smoothSolver:  Solving for Uy, Initial residual = 1.49109e-06, Final residual = 1.49109e-06, No Iterations 0
smoothSolver:  Solving for Uz, Initial residual = 1.5638e-06, Final residual = 1.5638e-06, No Iterations 0
GAMG:  Solving for p, Initial residual = 0.000552974, Final residual = 3.81614e-06, No Iterations 3
time step continuity errors : sum local = 4.02232e-12, global = -1.24684e-13, cumulative = 1.7917e-09
GAMG:  Solving for p, Initial residual = 0.000166956, Final residual = 4.38359e-07, No Iterations 4
time step continuity errors : sum local = 4.6194e-13, global = -8.98286e-14, cumulative = 1.79161e-09
PIMPLE: Converged 
        Doing final iteration
PIMPLE: Iteration 7
smoothSolver:  Solving for Ux, Initial residual = 4.14569e-06, Final residual = 6.61449e-11, No Iterations 1
smoothSolver:  Solving for Uy, Initial residual = 5.84048e-07, Final residual = 5.84048e-07, No Iterations 0
smoothSolver:  Solving for Uz, Initial residual = 7.06231e-07, Final residual = 7.06231e-07, No Iterations 0
GAMG:  Solving for p, Initial residual = 0.975517, Final residual = 0.0104976, No Iterations 3
time step continuity errors : sum local = 7.00473e-09, global = -1.93655e-11, cumulative = 1.77224e-09
GAMG:  Solving for p, Initial residual = 0.395137, Final residual = 5.79893e-07, No Iterations 18
time step continuity errors : sum local = 1.1508e-14, global = -2.79614e-15, cumulative = 1.77224e-09
PIMPLE: Converged in 7 iterations
ExecutionTime = 3858.98 s  ClockTime = 6123 s

Courant Number mean: 0.000392753 max: 0.0292953
deltaT = 0.002
Time = 0.898

PIMPLE: Iteration 1
smoothSolver:  Solving for Ux, Initial residual = 0.000191478, Final residual = 8.61407e-09, No Iterations 1
smoothSolver:  Solving for Uy, Initial residual = 1.11401e-05, Final residual = 5.95211e-11, No Iterations 1
smoothSolver:  Solving for Uz, Initial residual = 3.43927e-05, Final residual = 1.59978e-09, No Iterations 1
GAMG:  Solving for p, Initial residual = 0.994018, Final residual = 0.0111602, No Iterations 3
time step continuity errors : sum local = 6.55286e-09, global = 1.91576e-11, cumulative = 1.7914e-09
GAMG:  Solving for p, Initial residual = 0.176137, Final residual = 6.06559e-07, No Iterations 13
time step continuity errors : sum local = 6.06653e-13, global = 7.97342e-14, cumulative = 1.79148e-09
PIMPLE: Iteration 2
smoothSolver:  Solving for Ux, Initial residual = 0.00175245, Final residual = 1.3887e-08, No Iterations 1
smoothSolver:  Solving for Uy, Initial residual = 0.000280185, Final residual = 2.85197e-10, No Iterations 1
smoothSolver:  Solving for Uz, Initial residual = 0.000295111, Final residual = 2.4874e-09, No Iterations 1
GAMG:  Solving for p, Initial residual = 0.149201, Final residual = 0.00135753, No Iterations 3
time step continuity errors : sum local = 1.30842e-09, global = 3.29762e-12, cumulative = 1.79477e-09
GAMG:  Solving for p, Initial residual = 0.0412329, Final residual = 6.6953e-07, No Iterations 11
time step continuity errors : sum local = 7.09102e-13, global = 9.91289e-14, cumulative = 1.79487e-09
PIMPLE: Iteration 3
smoothSolver:  Solving for Ux, Initial residual = 0.000656418, Final residual = 5.86029e-09, No Iterations 1
smoothSolver:  Solving for Uy, Initial residual = 0.000119167, Final residual = 1.08629e-10, No Iterations 1
smoothSolver:  Solving for Uz, Initial residual = 0.000109927, Final residual = 1.03601e-09, No Iterations 1
GAMG:  Solving for p, Initial residual = 0.0331384, Final residual = 0.000595566, No Iterations 2
time step continuity errors : sum local = 6.2091e-10, global = 2.996e-13, cumulative = 1.79517e-09
GAMG:  Solving for p, Initial residual = 0.00991261, Final residual = 8.63426e-07, No Iterations 8
time step continuity errors : sum local = 9.14455e-13, global = -1.67358e-13, cumulative = 1.79501e-09
PIMPLE: Iteration 4
smoothSolver:  Solving for Ux, Initial residual = 0.000142463, Final residual = 1.79964e-09, No Iterations 1
smoothSolver:  Solving for Uy, Initial residual = 3.41375e-05, Final residual = 2.55338e-11, No Iterations 1
smoothSolver:  Solving for Uz, Initial residual = 2.38279e-05, Final residual = 3.13395e-10, No Iterations 1
GAMG:  Solving for p, Initial residual = 0.00736142, Final residual = 0.000124884, No Iterations 2
time step continuity errors : sum local = 1.31623e-10, global = -1.76819e-13, cumulative = 1.79483e-09
GAMG:  Solving for p, Initial residual = 0.00223446, Final residual = 7.77629e-07, No Iterations 6
time step continuity errors : sum local = 8.2072e-13, global = -1.86549e-13, cumulative = 1.79464e-09
PIMPLE: Iteration 5
smoothSolver:  Solving for Ux, Initial residual = 1.77181e-05, Final residual = 5.03778e-10, No Iterations 1
smoothSolver:  Solving for Uy, Initial residual = 7.59752e-06, Final residual = 7.59752e-06, No Iterations 0
smoothSolver:  Solving for Uz, Initial residual = 2.96353e-06, Final residual = 2.96353e-06, No Iterations 0
GAMG:  Solving for p, Initial residual = 0.00189165, Final residual = 3.58673e-05, No Iterations 2
time step continuity errors : sum local = 3.78121e-11, global = -1.97447e-13, cumulative = 1.79445e-09
GAMG:  Solving for p, Initial residual = 0.000576143, Final residual = 4.82878e-07, No Iterations 5
time step continuity errors : sum local = 5.08891e-13, global = -1.14964e-13, cumulative = 1.79433e-09
PIMPLE: Iteration 6
smoothSolver:  Solving for Ux, Initial residual = 9.27404e-06, Final residual = 9.27404e-06, No Iterations 0
smoothSolver:  Solving for Uy, Initial residual = 1.48925e-06, Final residual = 1.48925e-06, No Iterations 0
smoothSolver:  Solving for Uz, Initial residual = 1.56183e-06, Final residual = 1.56183e-06, No Iterations 0
GAMG:  Solving for p, Initial residual = 0.000552855, Final residual = 3.81431e-06, No Iterations 3
time step continuity errors : sum local = 4.01896e-12, global = -1.24522e-13, cumulative = 1.79421e-09
GAMG:  Solving for p, Initial residual = 0.000166915, Final residual = 4.38107e-07, No Iterations 4
time step continuity errors : sum local = 4.6151e-13, global = -8.97175e-14, cumulative = 1.79412e-09
PIMPLE: Converged 
        Doing final iteration
PIMPLE: Iteration 7
smoothSolver:  Solving for Ux, Initial residual = 4.14115e-06, Final residual = 6.60677e-11, No Iterations 1
smoothSolver:  Solving for Uy, Initial residual = 5.83339e-07, Final residual = 5.83339e-07, No Iterations 0
smoothSolver:  Solving for Uz, Initial residual = 7.05349e-07, Final residual = 7.05349e-07, No Iterations 0
GAMG:  Solving for p, Initial residual = 0.975549, Final residual = 0.0104952, No Iterations 3
time step continuity errors : sum local = 7.00049e-09, global = -1.9329e-11, cumulative = 1.77479e-09
GAMG:  Solving for p, Initial residual = 0.395393, Final residual = 5.75688e-07, No Iterations 18
time step continuity errors : sum local = 1.14095e-14, global = -2.77036e-15, cumulative = 1.77478e-09
PIMPLE: Converged in 7 iterations
ExecutionTime = 3866.4 s  ClockTime = 6134 s

Courant Number mean: 0.000392753 max: 0.0292865
deltaT = 0.002
Time = 0.9

PIMPLE: Iteration 1
smoothSolver:  Solving for Ux, Initial residual = 0.000191197, Final residual = 8.60076e-09, No Iterations 1
smoothSolver:  Solving for Uy, Initial residual = 1.11245e-05, Final residual = 5.93895e-11, No Iterations 1
smoothSolver:  Solving for Uz, Initial residual = 3.43355e-05, Final residual = 1.59694e-09, No Iterations 1
GAMG:  Solving for p, Initial residual = 0.994018, Final residual = 0.0111573, No Iterations 3
time step continuity errors : sum local = 6.54897e-09, global = 1.91211e-11, cumulative = 1.79391e-09
GAMG:  Solving for p, Initial residual = 0.176136, Final residual = 6.05798e-07, No Iterations 13
time step continuity errors : sum local = 6.05684e-13, global = 7.96414e-14, cumulative = 1.79399e-09
PIMPLE: Iteration 2
smoothSolver:  Solving for Ux, Initial residual = 0.00175084, Final residual = 1.38765e-08, No Iterations 1
smoothSolver:  Solving for Uy, Initial residual = 0.000279885, Final residual = 2.84699e-10, No Iterations 1
smoothSolver:  Solving for Uz, Initial residual = 0.000294789, Final residual = 2.48513e-09, No Iterations 1
GAMG:  Solving for p, Initial residual = 0.149177, Final residual = 0.00135715, No Iterations 3
time step continuity errors : sum local = 1.30759e-09, global = 3.29161e-12, cumulative = 1.79728e-09
GAMG:  Solving for p, Initial residual = 0.0412262, Final residual = 6.69563e-07, No Iterations 11
time step continuity errors : sum local = 7.08887e-13, global = 9.90244e-14, cumulative = 1.79738e-09
PIMPLE: Iteration 3
smoothSolver:  Solving for Ux, Initial residual = 0.000655818, Final residual = 5.85596e-09, No Iterations 1
smoothSolver:  Solving for Uy, Initial residual = 0.00011904, Final residual = 1.08445e-10, No Iterations 1
smoothSolver:  Solving for Uz, Initial residual = 0.000109808, Final residual = 1.03506e-09, No Iterations 1
GAMG:  Solving for p, Initial residual = 0.0331328, Final residual = 0.000595351, No Iterations 2
time step continuity errors : sum local = 6.20466e-10, global = 2.9938e-13, cumulative = 1.79768e-09
GAMG:  Solving for p, Initial residual = 0.00991087, Final residual = 8.62998e-07, No Iterations 8
time step continuity errors : sum local = 9.13676e-13, global = -1.67108e-13, cumulative = 1.79751e-09
PIMPLE: Iteration 4
smoothSolver:  Solving for Ux, Initial residual = 0.000142337, Final residual = 1.79819e-09, No Iterations 1
smoothSolver:  Solving for Uy, Initial residual = 3.41014e-05, Final residual = 2.54933e-11, No Iterations 1
smoothSolver:  Solving for Uz, Initial residual = 2.38024e-05, Final residual = 3.13083e-10, No Iterations 1
GAMG:  Solving for p, Initial residual = 0.00735896, Final residual = 0.000124826, No Iterations 2
time step continuity errors : sum local = 1.31516e-10, global = -1.76426e-13, cumulative = 1.79733e-09
GAMG:  Solving for p, Initial residual = 0.00223369, Final residual = 7.77302e-07, No Iterations 6
time step continuity errors : sum local = 8.20082e-13, global = -1.86327e-13, cumulative = 1.79715e-09
PIMPLE: Iteration 5
smoothSolver:  Solving for Ux, Initial residual = 1.77045e-05, Final residual = 5.0329e-10, No Iterations 1
smoothSolver:  Solving for Uy, Initial residual = 7.58891e-06, Final residual = 7.58891e-06, No Iterations 0
smoothSolver:  Solving for Uz, Initial residual = 2.96065e-06, Final residual = 2.96065e-06, No Iterations 0
GAMG:  Solving for p, Initial residual = 0.00189117, Final residual = 3.58526e-05, No Iterations 2
time step continuity errors : sum local = 3.77831e-11, global = -1.97136e-13, cumulative = 1.79695e-09
GAMG:  Solving for p, Initial residual = 0.000575985, Final residual = 4.82622e-07, No Iterations 5
time step continuity errors : sum local = 5.0844e-13, global = -1.1484e-13, cumulative = 1.79683e-09
PIMPLE: Iteration 6
smoothSolver:  Solving for Ux, Initial residual = 9.26401e-06, Final residual = 9.26401e-06, No Iterations 0
smoothSolver:  Solving for Uy, Initial residual = 1.48742e-06, Final residual = 1.48742e-06, No Iterations 0
smoothSolver:  Solving for Uz, Initial residual = 1.55986e-06, Final residual = 1.55986e-06, No Iterations 0
GAMG:  Solving for p, Initial residual = 0.000552735, Final residual = 3.81248e-06, No Iterations 3
time step continuity errors : sum local = 4.0156e-12, global = -1.2436e-13, cumulative = 1.79671e-09
GAMG:  Solving for p, Initial residual = 0.000166874, Final residual = 4.37855e-07, No Iterations 4
time step continuity errors : sum local = 4.6108e-13, global = -8.96063e-14, cumulative = 1.79662e-09
PIMPLE: Converged 
        Doing final iteration
PIMPLE: Iteration 7
smoothSolver:  Solving for Ux, Initial residual = 4.13661e-06, Final residual = 6.59904e-11, No Iterations 1
smoothSolver:  Solving for Uy, Initial residual = 5.82631e-07, Final residual = 5.82631e-07, No Iterations 0
smoothSolver:  Solving for Uz, Initial residual = 7.04468e-07, Final residual = 7.04468e-07, No Iterations 0
GAMG:  Solving for p, Initial residual = 0.975581, Final residual = 0.0104928, No Iterations 3
time step continuity errors : sum local = 6.99626e-09, global = -1.92925e-11, cumulative = 1.77733e-09
GAMG:  Solving for p, Initial residual = 0.39565, Final residual = 5.71435e-07, No Iterations 18
time step continuity errors : sum local = 1.13102e-14, global = -2.7444e-15, cumulative = 1.77732e-09
PIMPLE: Converged in 7 iterations
ExecutionTime = 3873.9 s  ClockTime = 6145 s

forceCoeffs forces write:
    Cm    = -0.0118833
    Cd    = 3.69467
    Cl    = -0.129007
    Cl(f) = -0.0763869
    Cl(r) = -0.0526203

Courant Number mean: 0.000392753 max: 0.0292777
deltaT = 0.002
Time = 0.902

PIMPLE: Iteration 1
smoothSolver:  Solving for Ux, Initial residual = 0.000190916, Final residual = 8.58749e-09, No Iterations 1
smoothSolver:  Solving for Uy, Initial residual = 1.1109e-05, Final residual = 5.92586e-11, No Iterations 1
smoothSolver:  Solving for Uz, Initial residual = 3.42784e-05, Final residual = 1.5941e-09, No Iterations 1
GAMG:  Solving for p, Initial residual = 0.994018, Final residual = 0.0111545, No Iterations 3
time step continuity errors : sum local = 6.54508e-09, global = 1.90847e-11, cumulative = 1.79641e-09
GAMG:  Solving for p, Initial residual = 0.176135, Final residual = 6.05031e-07, No Iterations 13
time step continuity errors : sum local = 6.04712e-13, global = 7.95493e-14, cumulative = 1.79649e-09
PIMPLE: Iteration 2
/*---------------------------------------------------------------------------*\
  =========                 |
  \\      /  F ield         | OpenFOAM: The Open Source CFD Toolbox
   \\    /   O peration     | Website:  https://openfoam.org
    \\  /    A nd           | Version:  6
     \\/     M anipulation  |
\*---------------------------------------------------------------------------*/
Build  : 6-d3fd147e6c65
Exec   : reconstructPar
Date   : Apr 06 2020
Time   : 15:13:37
Host   : "DESKTOP-QC72NLQ"
PID    : 14942
I/O    : uncollated
Case   : /mnt/c/Users/fiedl/OneDrive/Documents/OF_Cases/flowAroundSuzanne/suzanne_dash/pimple_case
nProcs : 1
sigFpe : Enabling floating point exception trapping (FOAM_SIGFPE).
fileModificationChecking : Monitoring run-time modified files using timeStampMaster (fileModificationSkew 10)
allowSystemOperations : Allowing user-supplied system call operations

// * * * * * * * * * * * * * * * * * * * * * * * * * * * * * * * * * * * * * //
Create time



Reconstructing fields for mesh region0

